version 2
run General-0-20220708-22:52:38-430688
attr configname General
attr datetime 20220708-22:52:38
attr experiment General
attr inifile omnetpp.ini
attr iterationvars ""
attr iterationvarsf ""
attr measurement ""
attr network Raft
attr processid 430688
attr repetition 0
attr replication #0
attr resultdir results
attr runnumber 0
attr seedset 0
param Raft.numServers 5
param Raft.numClients 2
param Raft.client_node[*].client.sendCommandTimeout 0.9s
param Raft.server_node[*].server.canFail true
param Raft.networkDelaysPresent true

vector 0 Raft.statsCollector consensusTime:vector ETV
attr interpolationmode linear
attr title "Time required to reach consensus on a new leader, since network is leaderless, vector"
attr unit s
vector 1 Raft.statsCollector consensusMessages:vector ETV
attr interpolationmode linear
attr title "Number of messages exchanged on the network to reach consensus among servers, vector"
vector 2 Raft.client_node[0].client commandResponseTime:vector ETV
attr interpolationmode linear
attr title "Total response time of client request, vector"
attr unit s
vector 3 Raft.client_node[1].client commandResponseTime:vector ETV
attr interpolationmode linear
attr title "Total response time of client request, vector"
attr unit s
0	54	0.249711778807	0.249711778807
0	150	0.492375099691	0.027245116273
0	718	2.213706527647	0.028230119688
0	996	4.560535123448	1.724082890272
0	1241	5.240416100076	0.027346771509
0	1838	7.132121491931	0.828371315119
0	2287	9.938132940968	2.344167371475
0	2732	11.870788089354	0.95571613203
0	2907	12.896301067592	0.601584797272
0	3143	14.18331678534	0.236502327848
0	3269	14.575862607913	0.030259946092
0	3457	15.456808368647	0.021999513832
0	3548	15.744357043275	0.025748992453
0	3968	17.555726517788	0.496649570131
0	4201	18.91127166937	0.288034473756
0	4711	20.984146794438	0.24542816522
0	5010	21.867988066214	0.045242030926
0	5303	23.554054529711	0.037608561442
0	5792	25.231926097185	0.031854235534
0	5913	25.635070494562	0.030144473163
0	6382	29.012187321136	1.845297709168
0	6533	29.484098879047	0.268228482913
0	6691	29.889187831713	0.027220012132
0	7103	31.608111624559	0.565942393281
0	7564	33.318971296137	0.321414774501
0	8737	38.572502393112	0.03277793631
0	9169	40.965374917295	0.385068776107
0	9376	41.503118885238	0.030658102901
0	9506	41.853542524624	0.027162488161
0	9597	42.27995112691	0.024556977859
0	10164	44.94641728563	1.838639392361
0	10424	45.747593553276	0.036337877319
0	10884	47.162162004344	0.043994841092
0	11390	49.825714119989	0.483186168025
0	11552	50.457662068657	0.033264314829
0	11648	51.010918576406	0.312983350821
0	11761	51.697671105848	0.279235311719
0	11920	52.687901048919	0.472381188854
0	13682	60.414747301648	2.370026563699
0	13928	61.384549117062	0.280432767393
0	14107	61.790633098999	0.230589807953
0	14307	62.394318281054	0.046189269581
0	14366	62.582103334136	0.020847645632
0	14602	65.066164473362	2.125900972155
0	14722	65.509854435143	0.029496622471
0	15153	66.995176260173	0.415100038699
0	15478	68.510580519208	0.520235359359
0	15918	70.328681190655	0.035932890714
0	15996	70.54557444208	0.037441209662
0	16434	72.586163971494	0.310853301664
0	16653	74.297074721451	1.306613916871
0	16806	74.860824407505	0.042215703925
0	16902	75.257474967569	0.040611975627
0	17048	75.618993640092	0.03453206939
0	17239	76.099486929888	0.040387221277
0	17549	77.388097173685	0.027823581791
0	17791	78.975777138419	0.965175344755
0	17952	79.876032067888	0.029920888022
0	18129	80.832180160528	0.484653275362
0	18222	81.298014743662	0.030736325818
0	18611	83.285261569324	0.931059450075
0	18831	84.066526194013	0.381203574536
0	19023	84.657360031274	0.033591422784
0	19251	85.680087612777	0.244801918596
0	19738	87.580618864685	0.025421376131
0	20448	91.524053711245	3.468140204166
0	20667	92.257615309345	0.037108879075
0	21227	95.914728972105	3.442004164689
0	21725	97.859550777003	0.030864496106
0	21916	98.742423241414	0.047479371589
0	22346	101.159563234027	1.787276921244
0	22623	102.769859713941	1.329448145829
0	22843	103.597761023957	0.035572913666
0	23114	104.748093140294	0.123169108334
0	23666	108.213287597279	2.028157643098
0	23884	108.597275354053	0.059216287311
0	24184	109.47049434728	0.033528938321
0	24594	112.729346536106	1.913633675929
0	25008	113.783768883204	0.028937395386
0	25287	114.714881394188	0.023364888086
0	25655	117.390093414404	2.345697653415
0	26028	118.47732644519	0.403427534595
0	26138	118.641211606028	0.022747035074
0	26959	121.045415866837	0.972372443491
0	27446	123.075606677199	0.052833007765
0	27561	123.985154847142	0.726943266503
0	27694	124.356073762571	0.047852760397
0	27920	125.313120602884	0.031205665281
0	28402	126.972884747176	0.022571284617
0	28740	129.420901105256	1.899103751186
0	28934	129.983393167451	0.036113789831
0	29268	131.160743247254	0.032180608857
0	29394	131.590567902814	0.035550211581
0	29684	133.803402060077	1.731659475815
0	29987	135.047348269407	0.050886096998
0	30035	135.233790004906	0.025134805773
0	30646	138.758272255839	1.865386414567
0	30764	139.107774267314	0.028256397374
0	31202	141.825935163537	2.436895239162
0	31629	143.754291252788	0.245346562828
0	31754	144.14769915051	0.026082226168
0	32109	145.974100000664	0.246932253284
0	32210	146.509552183002	0.334005616336
0	32554	147.894659592468	0.031694854615
0	32739	148.683375174462	0.0387580128
0	32857	149.012693344809	0.032566577427
0	33460	152.469268002783	1.470849282204
0	33614	152.837084979568	0.044627075327
0	33888	153.965732166888	0.043331767603
0	34443	155.844762356588	0.062739616017
0	35094	159.225867253764	0.888422444657
0	36290	165.145712277017	1.710221454404
0	36479	165.757070538253	0.024952338705
0	36639	166.292244761212	0.040852037017
0	37142	169.50778582202	1.403903858183
0	37570	170.806529659385	0.022504279616
0	37665	171.149056375555	0.043454698399
0	37764	171.50026760657	0.033175900128
0	37827	171.754950867437	0.041901691729
0	38089	173.124273492299	0.079239289372
0	39153	177.85093676844	0.043340749299
0	40142	182.128421575271	0.049094001363
0	40439	184.365105459355	1.342563976125
0	40569	184.852668330434	0.036603698285
0	40672	185.119416247207	0.034590105191
0	40783	185.412093568852	0.048102914332
0	40866	185.653016837598	0.032426698097
0	41566	188.609095259264	0.02440789183
0	42334	192.589214651856	2.541667815724
0	42467	192.86941974056	0.038367588859
0	42847	193.942913981957	0.070474538906
0	43286	196.861794703943	2.103692337746
0	43464	197.306997359423	0.027260088263
0	43596	197.552306463172	0.027727296073
0	43700	197.886232746203	0.026893189715
0	43860	198.419218389265	0.024037435286
0	44145	199.620033672502	0.298146098702
0	44443	201.8581411219	1.975309643196
0	44806	203.441923295496	0.032654878688
0	45294	206.722812297655	2.182199236859
0	46195	210.394044885279	0.052867957191
0	46405	211.185587372872	0.035300190829
0	46459	211.389127706719	0.038781445076
0	46758	213.422278219666	1.41366386123
0	46872	213.891954115033	0.025211467418
0	46978	214.199822321305	0.03399786853
0	47049	214.432782994489	0.032008881847
0	47179	214.752362362317	0.045193629983
0	47399	215.875446538276	0.046425323182
0	47729	218.264270156409	2.181225804936
0	48055	219.247843950356	0.037951564969
0	48420	221.89754043629	1.585912602165
0	48750	222.612449741234	0.061377889
0	48861	222.963308840533	0.215422149693
0	49023	223.216520407443	0.025286660929
0	49103	223.57693600912	0.094206492999
0	49434	226.414593568534	0.968311070006
0	49530	226.632778758617	0.038761827294
0	49882	227.781148571683	0.046499063335
0	50449	231.044610974587	2.271339404125
0	51134	234.717602280117	1.293526395828
0	51314	235.5010174352	0.429286868244
0	51892	237.574397338534	0.038247337756
0	51979	237.899684444805	0.025344106498
0	52375	240.450457229406	0.028698362061
0	53031	244.556724576049	3.540525302076
0	53369	245.76985573921	0.050097269372
0	53739	247.892498886564	0.507581832516
0	54504	252.124903827841	2.916205618259
0	54862	253.380438062295	0.056701698531
0	55327	256.066955639052	1.132257937005
0	55427	256.464757467952	0.06887624087
0	55544	256.813830380713	0.05571097676
0	56314	260.249040465391	3.167648962344
0	56590	260.964132709817	0.234512623095
0	57023	262.273258697575	0.197058146056
0	57238	264.466407882375	1.929349387331
0	57570	266.084533519366	0.211039156954
0	57742	266.598896253452	0.038291169564
0	58354	269.499359307067	2.445025263632
0	58596	270.648790593583	0.033317885971
0	58699	270.994588455537	0.03247183498
0	59129	272.71623767862	0.043921537083
0	59567	274.262705652687	0.596656020074
0	59900	276.100398772535	1.363308298585
0	60688	280.563642388765	2.313545394197
0	60960	281.991435854097	0.032460531071
0	61404	284.633787527057	1.664605032281
0	61506	285.151958654869	0.034918028693
0	61637	285.72905696528	0.032515202215
0	61855	286.75464822975	0.039241603364
0	62182	289.105792535373	1.71530374334
0	62299	289.577388752183	0.032577810424
0	62367	289.82734449098	0.031116861166
0	62994	292.345866185518	0.031016358698
0	63600	294.296749125562	0.482085733072
0	63980	296.138084520791	1.265767815842
0	64149	297.032980101765	0.032293558803
0	64622	298.887943365394	0.028190562262
0	64748	299.286501721156	0.055331113969
0	64920	300.026765890594	0.030496517299
0	65291	302.556589555633	0.963325032442
0	65491	303.45233972834	0.052379645359
0	65821	304.628576801431	0.309428669313
0	65927	305.282960003141	0.429838534509
0	66438	307.247154726152	0.036865081821
0	66501	307.513501673229	0.055713541811
0	66826	309.775606995693	0.664709199153
0	67596	313.351348125922	2.221724846266
0	68440	318.032801933565	2.312545585551
0	68627	318.2758126975	0.030708886933
0	68782	318.786475635997	0.032223492976
0	69049	319.71604922492	0.050256081314
0	69295	320.724455880144	0.259995899723
0	69585	321.647388619492	0.041762265582
0	69913	322.841014423684	0.05918109193
0	70381	325.027642101775	1.287066206918
0	70630	326.128252152684	0.071032863723
0	71340	330.095712460106	2.204372706155
0	71438	330.253542963387	0.027357871246
0	71669	331.102036672992	0.045427557369
0	72146	334.031103628845	1.733695978061
0	72331	334.659485214035	0.036319846308
0	72458	335.168901875388	0.027791935903
0	72539	335.565948395016	0.198032937993
0	73030	338.32090802793	1.764209674715
0	73197	338.610065084022	0.03138430022
0	73396	339.30673217892	0.028517091833
0	73508	339.650479598344	0.030943793479
0	73614	340.033631473633	0.031943774159
0	74746	346.355095561599	2.067079713399
0	75012	346.992408873846	0.045417584252
0	75124	347.314086614332	0.028596572986
0	75402	348.142623393439	0.027563753842
0	75450	348.387086059617	0.036902585686
0	75700	348.973711596025	0.038251470114
0	76248	351.78973260964	0.467513877842
0	76997	354.712016167383	0.033685726711
0	77326	356.20387270055	0.551853558993
0	77706	358.129899452109	0.028158173265
0	77768	358.392305360987	0.051167297342
0	78122	359.896713154187	0.226859297257
0	78551	361.293145325568	0.040645075381
0	78786	362.350472400316	0.048320053892
0	78866	362.708064655699	0.030701498261
0	79239	363.954711326844	0.026822813495
0	79356	364.314620915449	0.054850712932
0	79589	365.47160839097	0.420733037866
0	80004	367.050685300787	0.218000644752
0	80161	367.340101212865	0.022744540789
0	80251	367.563412482946	0.022865968528
0	80379	367.999197268692	0.033190504357
0	80925	370.790571083946	2.145994181743
0	81004	371.141017348005	0.043047986664
0	81480	373.07870515718	0.062259190777
0	81804	375.13964104988	1.710582977067
0	82945	379.39547422981	0.350464774539
0	83003	379.694155289499	0.052617345128
0	83137	380.30654036042	0.042574364269
0	83484	382.209112808536	0.018753694761
0	83958	384.839721272381	1.566287195437
0	84027	385.194644666554	0.033135618516
0	84377	386.859529502424	0.065601993082
0	84484	387.233958221904	0.035007197703
0	84871	388.745672395409	0.069448782332
0	85549	392.473016340772	2.894162861779
0	86160	394.905819674506	0.03947207076
0	86475	396.407160822771	0.031687338412
0	86554	396.610887190007	0.042183480837
0	87402	400.87621089651	2.752316536098
0	87732	401.842861331433	0.042262918143
0	88145	403.825389275012	0.046753597899
0	88895	406.273739350882	0.025213399935
0	89108	407.075031528909	0.244749766925
0	89210	407.507388670232	0.060138877986
0	89604	409.87745575172	0.925418289852
0	89731	410.203145295755	0.043090394923
0	89931	410.879575115693	0.036998638713
0	90085	411.421880362608	0.042103025319
0	90303	412.736304691932	0.519694446149
0	90623	414.233800486227	0.029110769194
0	90764	414.794181103309	0.028586756084
0	91392	418.088125714643	1.484739534022
0	92403	423.068650153438	2.018801240147
0	93153	425.242447545636	0.261103121217
0	93344	427.548135964399	1.746144915998
0	93503	427.984475378353	0.037775243412
0	93754	428.798094744315	0.043470083834
0	93954	429.414987147379	0.041565906959
0	94430	431.837518952193	1.365889586971
0	94531	432.172046581434	0.043803944681
0	94654	432.853176445436	0.470583606985
0	94701	433.118589092935	0.020171540594
0	94914	434.218558610748	0.257276596185
0	95147	435.891411055785	1.321106770281
0	95553	437.831423860742	0.078499830235
0	96233	440.974473926611	0.04221220625
0	96310	441.222539686313	0.045670648124
0	96473	441.577500142426	0.334504993482
0	96864	444.647480054557	2.138245148763
0	97850	449.11078605141	0.245859401749
0	98062	449.39640679775	0.057212160818
0	98507	450.344151387223	0.235582932494
0	98745	451.600426435877	0.061268362605
0	98931	452.809007098731	1.016531065788
0	99248	454.048691990341	0.041558934575
0	99395	454.540521211864	0.028483417629
0	100330	459.051387003593	2.428377466613
0	100506	459.638161603257	0.023315848666
0	101093	463.486678165637	2.078562384887
0	101269	463.816569621595	0.031892788655
0	101830	465.274650730475	0.043987706058
0	102083	467.836839188838	0.408914220213
0	102583	469.675357111612	0.309055942997
0	103016	472.876926455127	2.148953427344
0	103094	473.084969855628	0.02660163338
0	103208	473.447256865421	0.048424278967
0	103600	474.713107672618	0.057060842217
0	104530	478.6197237792	1.895038837291
0	104779	479.311325278268	0.017143126933
0	104976	479.996996417425	0.024307784152
0	105675	483.701738263413	2.0612650935
0	106296	486.323526504129	0.036031520998
0	106634	487.652743213886	0.024082195958
0	107068	490.36728572404	1.310450237416
0	107144	490.700914014116	0.089904396627
0	107607	492.305309274758	0.024378894153
0	108220	495.432174661793	0.045956048422
0	109407	500.642253182918	0.918141192671
0	109928	503.931772664218	2.369800882003
0	110647	508.007468343031	1.966949430415
0	110956	509.166192067131	0.042024443905
0	111035	509.442943421399	0.051024010254
0	111699	512.878276992288	1.022790068682
0	111801	513.198325604065	0.046643417117
0	112391	516.494778371151	1.911906147181
0	113170	520.76960673869	1.814253198923
0	113796	524.583241413047	1.917199143251
0	113876	524.824258230166	0.037262820879
0	114163	525.775986483151	0.036031667252
0	114704	528.900589606308	0.672001007408
0	114865	529.760819379323	0.041928754862
0	115513	533.030340589014	1.861546825589
0	115687	533.298501183327	0.022533748184
0	115952	534.368685173221	0.041674160624
0	116314	537.099490606432	2.186243361797
0	116423	537.471365439401	0.030165893766
0	117196	541.708317018727	2.101347038456
0	117895	544.795368325405	1.08163757512
0	118181	546.184783790927	1.144464271775
0	118297	546.494370093025	0.062307296302
0	118764	548.798906219611	0.937216024369
0	119179	551.242768364478	1.596027086972
0	119876	554.167294413882	0.028242394476
0	119958	554.401867188173	0.032661392787
0	120062	554.705197098627	0.031412268955
0	120244	555.309168055792	0.043409106946
0	120541	557.348862445196	0.919827828165
0	120691	558.124414346323	0.316472352654
0	121257	561.694603572035	1.836056346139
0	121349	561.946933085131	0.02511302746
0	122448	566.910970596443	0.289115151051
0	122638	567.573568904971	0.02943600219
0	123216	570.05811518328	0.028760367287
0	123497	570.983791248751	0.053842250303
0	123910	573.577471214136	1.707826539719
0	124236	574.868035982215	0.338518574813
0	124875	578.258927505759	1.770651372152
0	124945	578.528524266795	0.033360984987
0	125164	579.551128931799	0.248651596153
0	125508	581.378336857853	1.265182581669
0	125661	581.950112694641	0.040139903272
0	126103	583.826646318421	0.03930532998
0	126414	586.267362646577	1.971729921511
0	126606	587.261171893427	0.053210728068
0	127232	589.429363274853	1.358729604186
0	127518	590.799870812285	0.040512071167
0	127736	591.835433312934	0.03796729963
0	128254	594.057005293079	0.02472321225
0	129106	598.118135717928	0.928105026161
0	129218	598.591224967636	0.038280203253
0	129366	599.342757754218	0.026373302032
0	129712	600.573676889176	0.992530174104
0	130138	603.010885657605	1.031326344065
0	130245	603.466455629515	0.040258518075
0	130422	603.99664493389	0.02852062296
0	131569	608.979420196364	0.218458404221
0	131764	609.568644536613	0.265840304291
0	131984	610.322567362729	0.030638117786
0	132542	613.133003950522	1.96699338061
0	132724	613.826496680486	0.06033339383
0	132805	614.11842207775	0.038287283165
0	133450	618.126407851177	2.630647377045
0	133561	618.597484889944	0.040107090528
0	133744	619.304668444887	0.061394472628
0	133815	619.654324169767	0.035807892398
0	134187	622.111439101037	1.432816860294
0	134328	622.823448913671	0.232960933086
0	134578	623.93026975772	0.025136729147
0	134922	626.094591822862	0.924362547681
0	135017	626.443912420132	0.021798509001
0	135094	626.66474612726	0.021753832071
0	135730	630.200063583026	2.038084920009
0	136557	634.559473109917	1.824949676836
0	136765	635.430591453162	0.039638271344
0	137158	638.553652534631	0.587325044353
0	137690	640.380007471925	0.023095629987
0	137890	641.158735087406	0.344762996178
0	138819	646.92180974483	2.167663820824
0	138896	647.223333195599	0.034663610069
0	139188	648.218226491654	0.569333324134
0	139391	648.531155299423	0.038173959038
0	139890	649.453860174446	0.045269315096
0	140258	651.857961120213	1.870531562167
0	140384	652.393007620151	0.079095833686
0	140711	653.548386763573	0.230143991143
0	141207	656.339933172264	0.725229782808
0	141496	657.664686959829	0.046485482779
0	141893	659.764441196097	0.873751201884
0	142123	660.264172491475	0.026104301832
0	142333	661.175492172596	0.041455302005
0	142852	663.832918085393	1.291407233324
0	143490	667.456547402662	2.683428726405
0	143925	669.124955158084	0.059299450115
0	144108	670.028148346161	0.034118416355
0	144403	671.136674146499	0.048933890829
0	145130	675.178124473942	2.333770479833
0	145719	676.873736440389	0.454882868021
0	146122	679.794119658648	2.157074722703
0	146721	681.40716519705	0.22944441431
0	146937	682.2196390494	0.032166435102
0	147077	682.841671089489	0.219486785598
0	147580	684.950009022795	0.039588085777
0	147719	685.595620768587	0.033074688226
0	148218	688.612153181361	1.462806637741
0	148413	689.38080905418	0.23158681555
0	148550	689.700804260259	0.028759063295
0	148678	690.169537669622	0.036521024133
0	148828	691.236365768903	0.549083224627
0	149220	692.939026708477	1.396417344683
0	149727	695.911599026857	1.140154602697
0	149864	696.474856620467	0.053928396104
0	150006	696.786628948416	0.025962162698
0	150088	697.026975471973	0.029976143449
0	150378	698.025541982663	0.034428635159
0	150669	698.720968258377	0.038196566465
0	150795	699.312792545911	0.29679187928
0	151144	700.555314402134	0.053964349143
0	151543	703.141205416891	1.66545532282
0	151748	704.00717487978	0.285942789599
0	152369	707.553797110235	2.478254310044
0	152530	708.152162254576	0.02342662044
0	152644	708.617480842966	0.230626235193
0	152732	708.931969645176	0.029784656517
0	153128	710.745713535956	0.029484520117
0	154074	715.434971985162	2.003939388761
0	154621	717.901943002096	0.036419163707
0	154982	720.635668823451	1.192974164744
0	155112	721.156013199962	0.04062137105
0	155234	721.4206457389	0.023748771417
0	155542	722.491196490639	0.049686377235
0	156017	724.415500592498	0.059265338904
0	156140	724.707495282435	0.024344017345
0	156694	727.925073222761	2.443410266515
0	156862	728.677094039473	0.049299650582
0	157152	729.810181780836	0.043342970719
0	157973	734.098391764598	2.154960294259
0	158158	734.716984624935	0.026974129782
0	158928	739.030322987413	2.287184369764
0	159098	739.477747214227	0.028456315765
0	159383	740.691490743096	0.778152624736
0	159558	742.074806954199	1.025247489801
0	159913	743.329419841011	0.021752338929
0	160176	744.416599313096	0.036908901867
0	160470	746.715387439109	1.169924192006
0	160999	748.737487400208	0.046098569118
0	161639	752.688264882708	2.742160321462
0	161866	753.291773374474	0.412457468569
0	163051	758.971451750503	2.27628055263
0	163229	759.681827395844	0.025120127971
0	163370	760.306379744546	0.02498375207
0	163615	761.053634879158	0.022671180902
0	163713	761.259641733394	0.036493179151
0	163810	761.690913579755	0.251381619895
0	163990	762.413888584599	0.412449087384
0	165102	768.628297070925	3.025406243438
0	166219	774.550195959151	3.574466169677
0	166961	778.859040557714	1.214539162943
0	167446	780.434920850262	0.431720312315
0	167700	782.788414441916	0.477092897823
0	168017	783.606202686818	0.030240279494
0	168265	784.421280874523	0.030590525104
0	168355	784.767111586945	0.031266542921
0	168564	787.054908968479	2.055836159724
0	168883	788.258239022243	0.372792375997
0	169140	789.034670501667	0.032586076766
0	169726	792.648187282143	2.309809508763
0	170541	795.584972402184	2.765279316192
0	171209	797.855491377981	0.039884051801
0	171346	798.237266596186	0.250116535311
0	171905	801.35484219595	2.183041070687
0	172067	802.209921938797	0.030821750876
0	172315	803.085672615368	0.270164283366
0	173446	807.833260315719	2.415012345892
0	174471	812.762806727702	2.16627403453
0	174760	813.055245798299	0.032879492737
0	175222	815.62267017532	0.744033366814
0	175459	816.763211834171	0.407676899999
0	175770	818.362617380438	0.297114944341
0	176264	821.498886866733	1.722351715979
0	177380	827.07170910318	0.996601814762
0	177525	827.639672881713	0.205784074005
0	178035	829.300752153489	0.236222887985
0	178582	832.66529945443	2.525385796151
0	179207	835.284767806671	0.022933475342
0	179319	835.744021352746	0.042353720367
0	179882	838.18884932416	0.692640525803
0	180261	839.631752561826	0.031777352021
0	180366	839.878717305989	0.034605479039
0	180597	840.885819706307	0.042270503112
0	180844	842.320821338474	0.528000040995
0	181101	843.665416201093	1.109183686372
0	181589	846.328351668542	1.9201701215
0	181776	846.621134668098	0.039461295881
0	182640	850.567363298181	1.900944392574
0	183429	854.616951959858	2.477903602828
0	183869	856.157935963261	0.234111133994
0	184209	857.310340143261	0.038904578739
0	185055	861.222600980369	0.069883059846
0	185588	863.960455218479	0.234379338617
0	186534	868.280880330201	2.03189509612
0	186716	868.698990238394	0.023311045606
0	186907	869.125348334073	0.02877474279
0	187304	870.610276320798	0.041344821831
0	187518	872.874910774776	1.526889896337
0	188132	874.538483872304	0.031713608647
0	188525	877.332865862494	1.799352071591
0	188723	878.002012063625	0.323079670732
0	189175	881.314153671759	2.137985468564
0	189462	881.962268645974	0.048985087718
0	189600	882.461703057427	0.30226264121
0	190195	885.258494386686	1.117128693311
0	191084	889.794761478212	0.93556518463
0	191431	891.149227306222	0.062573018731
0	191546	892.116069497422	0.792053870017
0	191778	893.169004075315	0.276989264044
0	191963	893.677433986919	0.028491261111
0	192067	894.002580087527	0.040952973656
0	192133	894.17597478761	0.031811273489
0	192434	895.713878616069	0.690076883686
0	192838	897.37203597017	0.026305297682
0	193121	898.347523106601	0.03746785725
0	193479	900.853626368495	2.195853676054
0	193635	901.19795550297	0.058595209182
0	193714	901.394497715022	0.025706041504
0	194319	904.764967376035	2.07630935619
0	194912	906.753315999281	0.031465500328
0	195077	907.84488397821	0.757478728439
0	195373	909.412998033227	0.264855455718
0	195869	912.166751256149	2.009143463253
0	196991	917.621401838815	2.755846624829
0	197579	920.05232073749	2.122272056823
0	197729	920.6438625771	0.03692583787
0	197824	921.009541417264	0.030915378466
0	197996	921.875804860373	0.225074341603
0	198396	923.186281760033	0.04825905519
0	198975	926.394823319214	1.816617286277
0	199989	931.280744604103	0.042597690177
0	200295	934.216176825299	0.81015262095
0	200399	934.560065649339	0.039520115593
0	200870	936.326577916452	0.375885373257
0	201209	938.219158608997	0.044196254849
0	201428	938.878227683054	0.288927160811
0	201526	939.108441748112	0.042078265776
0	202218	942.679341783145	3.335970741872
0	203604	949.222337473143	2.156040185898
0	203864	950.256349488696	0.049756158753
0	204384	952.764999198243	1.194545944079
0	204705	953.610362118092	0.052895671419
0	205321	957.07737070501	1.154395809282
0	205636	958.123075050506	0.192820464426
0	205807	958.400351272624	0.029815409771
0	206149	959.803226408357	0.052720603335
0	206869	962.440986913087	0.55260099911
0	206995	962.828450714125	0.198270124192
0	207189	963.424453048665	0.04343546602
0	207386	964.512875647097	0.316526081002
0	207586	965.00627904797	0.031807408423
0	207752	965.710176230588	0.499425525963
0	208015	966.601137668709	0.837873725161
0	208531	968.519809493418	0.02721223424
0	208753	969.341602091092	0.030867075959
0	209070	971.306700418256	0.927850194959
0	209887	973.628770744927	0.041458654274
0	210261	975.768748953241	1.322709529671
0	210507	976.817752975466	0.047618216412
0	210724	977.616458868647	0.042656643359
0	211044	980.296219022169	2.400328821313
0	211389	981.93090318168	0.222366896987
0	211594	982.898889646266	0.354509947603
0	212061	985.447240897505	2.113575033285
0	212818	988.127198324205	0.036304409537
0	213363	991.36368585256	1.457627485764
0	213637	992.325793654119	0.224573838473
0	213961	993.492485853892	0.025889689988
0	214114	994.163375914088	0.046385793723
0	214453	996.395514356136	1.786586998523
0	214991	999.704242308834	1.666530459119
0	215255	1000.709913021052	0.036961981074
0	215854	1004.136175655509	1.923048818486
0	215970	1004.385175871232	0.038649725961
0	216622	1007.354777280737	1.217798181907
0	216935	1008.418120515349	0.036608429423
0	217685	1012.395811643948	1.524773889601
0	217899	1013.505347437837	0.097881713284
0	218442	1016.925096398558	2.221353061578
0	218959	1019.021363975688	1.132192612569
0	219260	1021.652109140503	2.419436569156
0	220017	1024.670802239412	2.185385467204
0	220548	1026.821176215975	0.69976807859
0	220980	1028.702003175294	0.022841594782
0	221120	1029.164380327677	0.029547738554
0	221672	1032.362846472208	1.911817439693
0	222214	1035.433045623791	0.963039843756
0	222609	1037.448507695507	0.297420144914
0	222802	1038.413773590583	0.265304808517
0	223207	1041.43415915378	1.534655886716
0	223545	1042.788304499232	0.05720607196
0	223801	1043.790707457714	0.044145717285
0	224411	1047.057486930638	0.026061509147
0	225095	1050.463409101671	0.032436593647
0	225893	1054.68022583109	2.02720067081
0	226206	1055.913353241404	0.231133683951
0	226490	1056.835470220513	0.029400286589
0	226939	1059.816582969381	2.129829721342
0	227423	1061.737676975995	0.032052530684
0	227746	1063.841548712143	0.560212904533
0	227930	1065.169940190107	0.841739178564
0	228246	1066.31192896323	0.470087632851
0	228568	1067.980822156737	0.470825733655
0	229116	1071.145119343026	1.305129383931
0	229260	1071.852552005486	0.347003459754
0	229389	1072.429184209024	0.074526275493
0	230100	1075.110798051609	0.362236188356
0	230456	1076.823869214658	0.496941644314
0	230729	1078.103834376074	0.047997627246
0	230879	1078.660863059653	0.229988273365
0	231404	1080.529957634616	0.032063721943
0	231751	1083.24137473334	2.263463225034
0	232085	1084.143823625328	0.048043569951
0	232837	1088.456685851317	2.355352023957
0	233040	1088.702181236761	0.037287872392
0	233327	1089.495862574271	0.032750866588
0	233535	1090.164029426243	0.040809679089
0	233913	1093.02210919445	2.318150092556
0	234198	1094.231701870774	0.28124648985
0	234283	1094.553603592437	0.043586123923
0	234489	1095.138158980274	0.024761336581
0	235107	1098.461034477868	0.740840553142
0	235193	1099.085341121539	0.409312617902
0	235329	1099.849504437598	0.540171588171
0	235689	1101.288080023194	0.636218680459
0	235904	1102.092971271476	0.041861027844
0	236323	1104.667506977708	1.938406858814
0	237258	1108.048248393119	2.403427818916
0	237720	1109.836800480544	0.041831007122
0	237916	1110.688286244662	0.026818534799
0	237976	1110.889915320875	0.035087329348
0	238056	1111.291935790208	0.064571681015
0	238550	1114.707496431642	1.947287360722
0	239323	1118.715038374688	1.33008444108
0	239603	1119.327855520277	0.023065800926
0	239945	1120.176330869711	0.024193101295
0	240185	1121.182840835637	0.040074200289
0	240732	1124.696851010124	2.780309976737
0	240829	1124.990014957252	0.02454976837
0	241409	1128.628324395316	2.594290868817
0	241916	1129.877955146348	0.023141722545
0	242628	1133.862109027315	1.579531205252
0	242853	1134.403444336374	0.236723003486
0	243041	1134.959549523093	0.03748419435
0	243594	1138.124396194401	0.77146935433
0	243902	1139.577170990362	0.026263896226
0	244068	1139.95304972065	0.037161954275
0	244774	1144.02771974023	2.378706518967
0	245008	1145.090411010709	0.621543203614
0	245563	1147.246868138878	0.815418933181
0	245960	1149.345200641702	1.353318925416
0	246217	1150.238375456034	0.041109850471
0	246916	1154.312655846852	1.982558927401
0	247577	1158.087517679589	3.302499229401
0	248326	1161.335364684538	0.730681970391
0	248399	1161.619827230943	0.05738410045
0	248834	1164.075025585982	0.271889309898
0	249016	1164.642886929355	0.236536548211
0	249440	1167.254491205965	2.609457695659
0	249545	1167.721990835946	0.033122704587
0	249866	1169.117927854563	0.057302338467
0	250365	1171.96888712602	0.452571504036
0	250714	1173.418250528197	0.22652262959
0	251075	1175.133122829216	0.030769424965
0	251736	1177.865824636649	0.042653095303
0	252194	1181.121406505499	1.488950460008
0	252452	1181.843592797202	0.05303488528
0	252643	1182.686321140709	0.038152737582
0	252886	1183.701327028269	0.28334774053
0	253235	1185.769002387198	0.046141749676
0	253484	1186.370319783733	0.023674888127
0	254119	1190.278202249053	1.513603742597
0	254939	1194.534129190329	2.23627663132
0	255308	1195.472509488686	0.037079717639
0	255444	1195.91774326429	0.03355879235
0	255530	1196.157257883787	0.032531719476
0	255629	1196.506113335387	0.030937914072
0	255874	1199.017753416746	2.039416514939
0	256028	1199.547919078997	0.035475872979
0	256639	1201.760902120822	0.037326983435
0	256805	1202.57406034944	0.045482874968
0	256943	1203.030851813867	0.042271747743
0	258068	1208.572103940225	3.64939298002
0	258510	1209.928492288737	0.228132771974
0	258856	1211.774013589222	0.51829447734
0	259377	1213.959266955591	0.028810421418
0	259552	1215.084288255888	0.489250372152
0	259709	1216.466184925345	0.947023489999
0	259999	1217.554009893145	0.024953035463
0	260302	1218.655301302364	0.040146736002
0	260641	1221.035021300022	1.292286496501
0	260930	1221.908623501515	0.025442363334
0	261204	1222.792790836227	0.033530748142
0	261817	1225.538490075105	0.034461149359
0	262627	1228.460164181161	0.225965606531
0	263045	1230.622104023242	1.905057189178
0	263621	1232.776792700784	0.048202008944
0	264190	1234.771918823062	0.059153385232
0	264482	1235.576520181083	0.047978866085
0	265297	1239.08709913249	0.196579732586
0	265377	1239.274608619276	0.02712401592
0	265553	1240.048980689854	0.038760174457
0	265873	1241.33639733356	0.05527892268
0	266479	1243.952225984154	0.034636393479
0	267238	1247.377957026381	0.054839039985
0	267510	1249.49871384602	1.763569005029
0	267720	1250.376310773981	0.241760450242
0	267998	1251.114317322378	0.730717873517
0	268083	1251.345941191956	0.030390900118
0	268487	1254.428190868496	1.853195763939
0	268700	1254.974505967836	0.045398622013
0	268831	1255.400516040749	0.035138218757
0	269055	1256.018529917259	0.033239159297
0	269835	1259.791355301333	1.995205610246
0	270287	1261.564330193112	0.02658962881
0	270843	1264.164470129288	0.198424385445
0	271244	1266.310550985416	0.959332323534
0	271324	1266.765664075072	0.247506546516
0	271698	1268.398262581721	0.026183790397
0	272100	1270.874872044593	2.039742928812
0	272375	1271.714754235707	0.034822229549
0	273063	1274.864311475884	0.754952383268
0	273307	1275.637946285323	0.036297148182
0	273834	1278.308176003811	1.632233865563
0	274327	1280.27389067959	0.036250261084
0	274402	1280.658605758106	0.036374786398
0	274672	1282.74650727737	1.571392781501
0	274802	1283.209159319801	0.03022969568
0	274855	1283.412870951098	0.02723725515
0	275464	1286.680524124077	1.358674870418
0	275683	1287.429385429643	0.44444927366
0	275915	1288.170384194902	0.03818898326
0	276536	1291.957575726313	1.784093860634
0	276689	1292.365234664777	0.209182341812
0	277301	1294.815441255475	0.047304188207
0	277649	1297.141049697026	1.018737813113
0	277779	1297.67520769913	0.221444882642
0	279588	1304.953742236356	0.025221918634
0	279866	1306.106007364663	0.043682413767
0	280128	1307.000001318775	0.038795502957
0	281260	1312.494491461983	0.030184817714
0	281464	1313.558933792685	0.452591932292
0	281578	1313.859272995052	0.048082338146
0	281788	1315.209156418836	1.00935605072
0	282013	1316.205656781295	0.036148164602
0	282315	1317.304491845045	0.033302514977
0	282460	1318.023176600431	0.031810545142
0	282797	1319.605232274368	0.515620054626
0	282953	1320.351307486092	0.037786053938
0	283066	1320.901310068477	0.242746324268
0	283393	1322.530076382746	0.313034058641
0	283764	1324.16629236578	0.87334400496
0	284061	1325.297104907589	0.048422382087
0	284610	1328.592407132155	2.369682105609
0	284801	1329.383645102078	0.02940644704
0	285353	1330.971089613706	0.035902489798
0	285601	1331.760014847071	0.23620261607
0	286205	1333.793350883279	1.829247481056
0	286544	1335.041483846458	0.046048305857
0	286675	1335.378204292708	0.041344975801
0	286741	1335.529016870113	0.019878597489
0	286866	1335.745452130655	0.025613337899
0	286921	1335.942136603462	0.029882526394
0	287278	1338.404200832151	1.726543353038
0	287428	1338.874380181988	0.029677816504
0	287744	1339.840644656296	0.024188698407
0	288331	1342.658581938277	0.786338777163
0	288812	1344.167883635101	0.021528722321
0	289697	1347.237777733472	1.388570724766
0	289829	1347.646639915103	0.030608188636
0	290290	1350.368721196271	1.374629442371
0	290631	1351.486589089376	0.022532119559
0	290707	1351.673889125506	0.023870361991
0	290795	1352.082589777232	0.045531100035
0	291229	1355.307999728337	1.156068075869
0	291553	1356.196393388823	0.188861499701
0	292234	1358.999247435147	0.265928605498
0	293443	1364.154272422857	0.448045281852
0	293872	1366.735908750935	1.29092853231
0	294651	1371.032518387148	2.44910316213
0	295051	1372.184273062635	0.026087244826
0	295478	1373.801452938089	0.386499592087
0	295835	1376.592455272388	2.424289949401
0	296092	1377.510067937644	0.031529822191
0	296501	1378.950056795527	0.476771750039
0	296823	1380.344716565788	0.045337990574
0	296868	1380.630238439229	0.078964148206
0	297096	1382.069474017161	0.263867276859
0	297421	1383.304454469191	0.225400989744
0	298239	1387.861794657038	2.748083277874
0	298369	1388.35540912843	0.030241276071
0	298457	1388.580844032596	0.040286382983
0	298594	1389.206778202448	0.04187009888
0	298637	1389.449297889381	0.05630061406
0	299207	1391.98777206858	1.24688874438
0	299435	1392.726317261859	0.028359569314
0	299852	1395.024386988219	2.132333084431
0	300185	1396.210342799097	0.038749030575
0	300356	1396.753020647249	0.28535339515
0	300877	1399.791347308683	2.577622024619
0	301711	1404.102932351805	2.07064875749
0	301827	1404.40749987585	0.059050582467
0	302368	1407.396956748421	1.263506406589
0	303042	1410.590460509012	0.947876240013
0	303336	1411.772503112943	0.306345307246
0	303633	1413.55376994862	0.730607173461
0	303964	1415.109263523137	0.026429024118
0	304033	1415.367229238957	0.03730874741
0	304196	1415.870955828674	0.031630005781
0	304644	1418.316906707602	0.743303303918
0	304876	1419.56918674892	0.44128587287
0	305199	1421.064346591824	0.25916694436
0	305328	1421.512811473572	0.04448597173
0	305875	1424.370534515699	1.190932667711
0	306111	1425.772773248881	0.997488349379
0	306228	1426.225080470172	0.041936448287
0	306803	1428.527138406775	0.03423150979
0	307142	1429.797686264947	0.035777403231
0	307677	1431.693863244495	0.091745098124
0	307952	1432.715289422296	0.021613303327
0	308328	1434.483163524177	0.036406081945
0	308572	1436.084562605011	1.37077180992
0	308967	1437.386120619549	0.047355721897
0	309356	1440.312925255879	1.11727592237
0	309879	1442.976145726129	0.759635726647
0	310874	1448.472476571191	2.491730470871
0	311110	1449.330476903428	0.053866640673
0	311618	1452.289139434085	0.723627819133
0	312136	1454.650157309287	0.587261243824
0	312594	1456.535401751596	0.25194419553
0	313269	1460.197747845689	1.488561650329
0	313716	1461.670618631417	0.02737522636
0	314169	1464.135689778502	1.069856480778
0	314636	1466.368946203994	0.032138576826
0	314767	1466.883695664401	0.062620512224
0	315500	1469.995546339926	0.237018384698
0	315916	1472.496696423013	1.416386390041
0	316012	1473.00733814553	0.226486548554
0	316472	1474.721130057731	0.064718067795
0	316998	1477.872539529934	1.872328339291
0	317232	1478.855822649896	0.032261432096
0	317385	1479.493434210445	0.212802114647
0	317732	1482.038145992165	1.94401071252
0	317797	1482.270121708277	0.033383594115
0	318265	1483.911354256428	0.029724376759
0	318502	1486.235106766588	2.05148362015
0	319059	1488.301216841112	0.060159171891
0	319189	1488.886453270359	0.216098356647
0	319582	1490.54465991779	0.238536193685
0	319853	1492.261988673431	0.446597946896
0	320090	1493.378481943886	0.613660186988
0	320395	1494.310231387776	0.035026755605
0	320549	1494.87791890025	0.041156020205
0	320652	1495.421449357439	0.040368945784
0	320950	1496.810812955353	0.049886639582
0	321570	1500.110526546836	1.58969962284
0	322029	1501.704019931708	0.519734561868
0	322428	1504.45625379868	1.190872014071
0	323034	1507.091778882465	0.043010247253
0	323278	1508.586149221566	1.205018724475
0	323515	1509.901977192408	1.070949063096
0	324038	1511.810974613555	0.04747211702
0	324549	1514.005282783774	0.02798071666
0	324727	1514.800672701521	0.046033598192
0	325331	1518.109847849986	2.139480590343
0	326716	1522.956006150744	0.029792259445
0	327311	1526.264266475283	1.844416058946
0	328091	1530.920713783258	2.706434962558
0	328203	1531.143703999238	0.025209115421
0	328364	1531.539922824022	0.019693903682
0	329016	1534.843267809248	3.099712610706
0	329989	1539.410823092219	2.004464968021
0	330205	1540.339415495272	0.059772946888
0	330665	1542.266510758896	0.034537191252
0	330978	1543.643931864162	0.029988698399
0	331219	1544.465615801269	0.27144719499
0	331279	1544.72419690334	0.046374697198
0	331742	1547.517353193771	2.507358050891
0	331842	1547.813454778242	0.045665955707
0	332059	1548.830154864396	0.053067108106
0	332368	1550.68521465201	0.945708940099
0	332714	1552.031193472158	0.468098625259
0	332821	1552.488586005373	0.040181760164
0	333443	1555.582042917291	1.223549176191
0	333649	1556.408969220585	0.244612066137
0	333889	1557.840700627349	0.267664885485
0	334015	1558.148800095894	0.042482454591
0	334099	1558.422582191118	0.028674893082
0	334714	1561.7788010796	0.063938206617
0	334828	1562.129998346906	0.040277797587
0	335056	1563.070121984204	0.03223611414
0	335602	1566.19108453847	2.270930225855
0	335783	1566.964482009742	0.056673960683
0	335919	1567.581372161702	0.020902180105
0	336037	1568.154828678581	0.034896412132
0	336218	1568.896020575639	0.289689604554
0	336282	1569.129387661409	0.049938907568
0	336347	1569.335710983605	0.033953357435
0	336760	1570.844448648012	0.227466487405
0	336876	1571.342494587327	0.029740130712
0	337550	1575.053277119708	2.217980831103
0	337645	1575.31090057907	0.039482262915
0	338349	1579.123357163647	0.06953839997
0	339117	1582.566994259927	1.325639855075
0	339486	1583.964424195023	0.020582014943
0	340035	1586.657453653557	1.202724580509
0	340202	1587.091466964953	0.043177265526
0	340382	1587.899260190142	0.046838111922
0	340500	1588.501057674821	0.050284173748
0	340656	1589.930086156838	0.941765492011
0	340776	1590.665000818994	0.486643570332
0	340984	1591.549627913303	0.027770072222
0	341410	1594.224200417316	1.897659593843
0	341830	1596.014605932018	0.035724316912
0	342016	1596.807908000375	0.237704833591
0	342324	1598.202138161468	0.823088789657
0	342527	1598.692129560181	0.030846819407
0	342776	1599.921785736938	0.556155306779
0	343567	1602.747932727102	0.042607472141
0	343677	1603.328883135865	0.396182590602
0	344043	1604.553216730726	0.049176822947
0	344404	1606.720428168053	0.216151994161
0	344514	1607.222025135783	0.04890140092
0	345157	1610.813661115871	1.666357787003
0	345262	1611.210303692328	0.039459313534
0	345325	1611.402102373443	0.025200446968
0	346059	1614.675937357323	1.252583607226
0	346261	1615.47753593567	0.028527034237
0	346640	1616.714454454326	0.038557861757
0	346932	1617.771041634584	0.024682033297
0	347238	1620.223152774764	2.194670323323
0	347556	1621.229872050431	0.031349593528
0	347702	1622.080310509703	0.511687935689
0	348462	1625.032335062084	0.029404915462
0	348584	1625.384411184151	0.046356881974
0	348851	1626.563459036859	0.031797175487
0	349041	1627.259149844043	0.213298757147
0	349209	1628.033280287387	0.313903645
0	349388	1628.646041754747	0.062345307363
0	349680	1630.168412764459	0.240187874629
0	349883	1631.044752555347	0.054046388029
0	350131	1632.497369453044	0.746213024276
0	350421	1633.823051056154	0.49131482582
0	350619	1634.416291814473	0.355441462125
0	351510	1638.725371803588	0.023030011941
0	351709	1639.395073754528	0.033633696959
0	352215	1642.655194193646	2.132651604149
0	352641	1643.660400978365	0.036528179975
0	353198	1647.290985615813	2.532009462107
0	353651	1648.64881158913	0.032118917172
0	354208	1651.908542648079	2.512243056701
0	354714	1653.451880264318	0.027726101298
0	355663	1656.601448142612	0.040614833346
0	356163	1659.257087540189	1.986875992206
0	356316	1659.576745149717	0.038071535079
0	356850	1661.589550985238	0.02638350549
0	357210	1664.147978233381	2.118412233269
0	357975	1667.998235016965	2.377464511598
0	359294	1674.016232237295	5.269973247194
0	359926	1676.157235961709	0.020984737643
0	360439	1678.200497520759	1.863008208461
0	360551	1678.538098306023	0.037249834395
0	360668	1679.034346590543	0.072068486456
0	361121	1680.831718602715	1.319375622914
0	361821	1684.715353877448	1.46833709939
0	361966	1685.173718030459	0.230490222956
0	362117	1685.924380234068	0.450788335917
0	362711	1688.011909534131	0.058247623598
0	362784	1688.226324741408	0.053288868777
0	362891	1688.718383961553	0.026287994491
0	363193	1691.068264538235	1.956036010162
0	363296	1691.42872065006	0.354772477544
0	363446	1691.902624501645	0.028092098594
0	364111	1695.987808984929	2.686102831199
0	364560	1697.945090027063	0.475779630806
0	365059	1699.901219025942	0.038853079742
0	366370	1705.360948015281	0.026554971946
0	366981	1708.90105395182	1.21565766193
0	367111	1709.212913344489	0.032116196699
0	367331	1709.961020348743	0.039898683128
0	367843	1712.962265334471	0.990588417695
0	368096	1714.196594993996	0.506734263294
0	368730	1716.439912434981	0.040013162656
0	368843	1716.796762686149	0.029459531268
0	368920	1717.048880850058	0.041350151534
0	369516	1720.642934398256	3.007058469817
0	369716	1721.415667046268	0.031763034516
0	369822	1721.780678300675	0.033041225948
0	370204	1723.647921615382	0.581751694848
0	370762	1725.332208308151	0.047310092183
0	371501	1729.743311597313	3.317237019127
0	371850	1732.371444231522	0.484679863785
0	372121	1733.513137350062	0.039853847769
0	372645	1736.636988292707	2.163297746565
0	373406	1740.754138884329	1.73398687891
0	374233	1744.363470124469	0.947497883068
0	374935	1746.431881350468	0.590852115693
0	375199	1747.507398369674	0.034351637086
0	375507	1749.084162226047	1.20038669811
0	375653	1749.931390113541	0.536045734057
0	376147	1752.47222365969	0.258027103768
0	376237	1752.966183875175	0.261553650074
0	376806	1756.12405908883	1.833831326243
0	376919	1756.612937274379	0.058877219453
0	377417	1758.909222620917	0.213046465632
0	377959	1761.83682609287	0.714882478634
0	378373	1763.552840184547	0.051576993273
0	378689	1765.047088941911	0.655256085344
0	378765	1765.44193496874	0.075701280392
0	379145	1767.252092400231	0.506390517582
0	379610	1769.236201494122	0.031097657061
0	379726	1769.849989726399	0.450335629308
0	380463	1772.777522332734	0.034598554257
0	381565	1778.814048192303	2.201195436901
0	382159	1781.085748889288	0.042424321779
0	382420	1783.259842878274	1.870472460899
0	382959	1785.152632409919	0.025224584949
0	383430	1788.229588965247	2.211639557386
0	383820	1789.601587930803	0.271844479578
0	383959	1789.806280748551	0.021910404102
0	384307	1792.82210733626	2.247694061531
0	385034	1794.822462858908	0.032682468229
0	385533	1797.740673926295	2.17968091476
0	385597	1797.941729236843	0.026283210698
0	385688	1798.208929534701	0.02599626773
0	385853	1798.952369841183	0.063908016826
0	386279	1801.535422011368	1.412763076829
0	386341	1801.754875054774	0.036489583929
0	386597	1802.781564710168	0.035334878088
0	387095	1805.229050738283	0.03640401871
0	387348	1806.857740287133	1.45504608054
0	387467	1807.267010048353	0.244860848986
0	387631	1807.558477130951	0.022925660362
0	388371	1811.368302866137	1.176037485374
0	388516	1811.962875584447	0.030778311804
0	388610	1812.233284373458	0.046615447301
0	388714	1812.695193915976	0.028208977458
0	388923	1813.612061982535	0.340499989415
0	389011	1814.033105213113	0.029699705232
0	389796	1818.029694691801	1.119635439245
0	390080	1818.854968988497	0.024377111903
0	390202	1819.216077341184	0.027269404379
0	390341	1819.72304673682	0.026071079045
0	390435	1820.244714625885	0.035610792992
0	390776	1822.795263141773	1.207112211195
0	391405	1826.28029687351	1.675821453506
0	391861	1827.874394112247	0.040203427558
0	392099	1828.649120113417	0.033129699664
0	392459	1830.997772190875	2.164491456923
0	392539	1831.241752142164	0.034201134913
0	392711	1831.806857518905	0.043690806144
0	393481	1836.215093348089	2.561541358727
0	394057	1838.570047421787	0.270320647341
0	394418	1840.985189503707	1.802615129942
0	395049	1843.137587587353	1.592246042354
0	395492	1845.944292725794	2.068308562798
0	395684	1846.586383197708	0.026414475235
0	395877	1847.130121576332	0.310170273506
0	396099	1848.23807942269	0.613825471607
0	396522	1851.174656394291	2.581294236631
0	397075	1852.999654301564	0.054752756681
0	397398	1854.786632611423	1.556975826137
0	397490	1855.265516094924	0.229018954922
0	397715	1856.302524246675	0.050357299753
0	398176	1858.904047823271	0.612420652374
0	398238	1859.151748212395	0.031374064682
0	398625	1860.796026733886	0.081942199758
0	399261	1863.628933392997	0.022475879658
0	399669	1866.563691515044	1.155089005328
0	399922	1867.653838729118	0.051826844577
0	400254	1869.110744660174	0.255345960937
0	400991	1872.016352362112	0.05784243182
0	401320	1873.355165878992	0.265799186289
0	401437	1873.598842634338	0.027556629328
0	401873	1876.289832067232	0.513502643368
0	402521	1878.771885243408	0.27520050767
0	403284	1881.883823427589	0.212678750543
0	403498	1882.630121413219	0.046678516007
0	403904	1885.057607451082	1.192691161039
0	404015	1885.286099130535	0.027395295189
0	404120	1885.800698834999	0.032907895887
0	404448	1887.12125739065	0.03455136927
0	404575	1887.788979625365	0.028635834545
0	404960	1889.426820373681	0.846771396401
0	405293	1891.274583965837	1.587092382175
0	405389	1891.62832794078	0.03888082755
0	405848	1893.982295345618	0.752620025513
0	405988	1894.517538756191	0.254142804316
0	406087	1894.907615054583	0.241847445596
0	406479	1896.414475531984	0.044093442964
0	406791	1897.953430182335	0.699585118833
0	407093	1899.101636767828	0.042258317421
0	407233	1899.608356833046	0.024028988673
0	407583	1900.867740389864	0.057023518518
0	407868	1902.732806572844	0.829805184779
0	408179	1903.84264359219	0.976434421613
0	408311	1904.165608726278	0.024308915652
0	409804	1911.838583504039	2.820140051206
0	409968	1912.17539873767	0.060589352053
0	410213	1912.634100225297	0.046281289885
0	410635	1915.824654875638	2.508328251837
0	411786	1920.438849546861	0.059405547649
0	411847	1920.649210032062	0.036694970694
0	412396	1924.080316102608	1.345428370654
0	412872	1925.876309207244	0.027187269696
0	413046	1926.805827359145	0.057395415719
0	413485	1929.581798698561	2.205594222508
0	413645	1930.098431041175	0.024032000481
0	413852	1930.721631713227	0.024787500699
0	414149	1931.933225210866	0.050192193136
0	414518	1933.869039043075	0.930374840959
0	415592	1938.581238896908	0.229503367508
0	415843	1940.228052653022	0.783564477472
0	416213	1941.800266973861	0.052089910847
0	416857	1945.216304720206	2.043456082788
0	417056	1945.986208525501	0.069881365466
0	417413	1947.025605161328	0.0271857602
0	417814	1950.161082943532	2.432337911007
0	418086	1951.221866674237	0.202376104481
0	418444	1952.270806064172	0.029825626421
0	418510	1952.535911677541	0.048786554825
0	419005	1955.762480810211	2.260530683902
0	419651	1957.783149774046	0.035315032263
0	419960	1959.597949297397	0.673859232176
0	420233	1960.496453669688	0.026885205088
0	420336	1960.979684910477	0.040131165961
0	420935	1964.784495484153	2.097165814842
0	421196	1965.767162687836	0.04590211203
0	421519	1968.204043062753	0.805610882808
0	421702	1969.068737663528	0.05276219919
0	422267	1972.247871275374	2.496677596178
0	423070	1974.726150268012	0.049807895638
0	423294	1976.49034682565	1.451539974555
0	423567	1977.881716299795	1.176201451818
0	423823	1978.799162105062	0.05339762941
0	423896	1979.013330787914	0.045134569331
0	424170	1980.823289889159	1.187848468055
0	424336	1981.351859676926	0.028240635682
0	424539	1982.197768684575	0.046481954897
0	424640	1982.681686137699	0.039892185701
0	424805	1983.515648646698	0.056551201716
0	424986	1984.144919854199	0.03944098811
0	425732	1988.336383101526	2.041411745109
0	426013	1989.512529517137	0.269923346197
0	426267	1990.650262033234	0.044105271507
0	426848	1993.238692141627	0.018818195335
0	426968	1993.694834644721	0.043339008929
0	428044	1997.730324043879	0.024926137108
0	428146	1998.116807320569	0.055880003172
0	428514	1999.929073548224	0.2622537356
0	428906	2001.644782829863	0.025077139204
0	429025	2002.13499879827	0.049884413144
0	429159	2002.776053514691	0.217130256649
0	429571	2004.897521354327	1.038849707718
0	430206	2008.519340014274	2.028961246805
0	430700	2010.436428532174	0.026628837616
0	430798	2010.768371844397	0.04215702618
0	431225	2013.176332898042	0.676314706737
0	431493	2014.402967301465	0.023815038242
0	431644	2015.145029703115	0.417576707612
0	432045	2016.623000805572	0.934006740622
0	432172	2017.159506831132	0.030831906337
0	432476	2018.418221816856	0.89091492448
0	432947	2021.258703473825	1.431641334001
0	433284	2022.480783550589	0.032781961117
0	433904	2025.347237244604	0.439002193205
0	434069	2025.988102920216	0.041474905921
0	434716	2029.991384717711	2.755825730549
0	435421	2034.133732460402	2.277039880019
0	435675	2035.151437629127	0.033764643264
0	435812	2035.48562605083	0.027017456388
0	435937	2036.148002256243	0.468354478444
0	436493	2039.736346004704	1.942234700157
0	437410	2044.35637143732	0.707154063549
0	437605	2045.284913571956	0.026950338591
0	438086	2048.386657780333	2.008244853385
0	438155	2048.591235413033	0.024632967031
0	438466	2049.851187343045	0.034566034551
0	438948	2052.850940495627	2.696533552842
0	439293	2054.008494076093	0.198749654286
0	439717	2056.803801331582	1.648038634398
0	440018	2058.011415105495	0.025860706348
0	440946	2061.81288453984	0.672003094929
0	441284	2063.304081737181	0.40807753456
0	441425	2063.644647756219	0.03032929421
0	441655	2064.297027994714	0.41594244559
0	442522	2067.247958413561	0.352855608778
0	442851	2069.273779625508	0.993497571161
0	443044	2070.149467460205	0.490132660977
0	443261	2071.012643671157	0.056327669568
0	443369	2071.493948621985	0.034065141573
0	443618	2072.49433846404	0.021423959277
0	443830	2073.527846687411	0.037847478539
0	444173	2075.304766235601	1.247460603177
0	444849	2077.764656692835	0.037822642496
0	445195	2079.281674570716	0.034612318292
0	445648	2081.346506291905	0.027253603213
0	446147	2084.013598898045	1.753285946578
0	446418	2084.845318232251	0.056097329887
0	446554	2085.317052993808	0.025518089111
0	447306	2087.934527397561	0.023434070743
0	447868	2090.656534865481	1.646361306602
0	447942	2091.062827502216	0.040655678054
0	448857	2094.585871342627	0.030039409943
0	449265	2097.016731232635	2.101023290224
0	449351	2097.307939258943	0.023135760151
0	449503	2097.899979253064	0.027702423173
0	449682	2098.589087197632	0.048985559165
0	450007	2100.732323251172	0.30270537051
0	450300	2101.849044911771	0.030624547087
0	450708	2104.396997827716	2.002642754946
0	450844	2104.985813129192	0.037724668013
0	451063	2105.967563344033	0.027691669388
0	451217	2106.55344221918	0.031558186823
0	451873	2109.129191871932	0.300020766019
0	452241	2111.932773124833	2.155292539464
0	453263	2116.148264601382	0.04265282875
0	453502	2116.986081669868	0.048645823111
0	453961	2119.733503167818	0.604064282143
0	454129	2120.339640147233	0.045016112057
0	454390	2121.335502907307	0.026528849711
0	454515	2121.755259688574	0.046746573693
0	455690	2127.491326211557	2.338409685778
0	455752	2127.68385412654	0.020342666505
0	456006	2128.367649109359	0.094826261474
0	456311	2130.974827536595	1.916078261815
0	456582	2131.987031006838	0.205743567182
0	456969	2133.710210916807	0.564250497972
0	457295	2135.13279055334	0.616537559682
0	457400	2135.334163819686	0.043585180279
0	457632	2136.565477097722	0.303176391453
0	458596	2142.031931627296	2.387010068261
0	459147	2143.625768613779	0.025420453433
0	459439	2145.941183083855	0.030637807371
0	459640	2146.789315736747	0.030695570592
0	459954	2147.737498265723	0.040307745622
0	461394	2154.398247352362	1.751391955279
0	462034	2156.83021821394	0.405543091841
0	462356	2158.637791227574	1.345866584691
0	462485	2159.24848959937	0.049026755634
0	462923	2160.441043475377	0.037372954008
0	463328	2161.266211368763	0.03348648115
0	463479	2161.734351494779	0.036803337799
0	464292	2166.060263013755	1.854368038456
0	464483	2166.939008194505	0.247324998934
0	465166	2170.68286352901	2.001402646621
0	465613	2172.134619018657	0.055678759288
0	466437	2175.56445891917	0.032269712817
0	466745	2178.491620209727	0.836542084813
0	467227	2179.76040124132	1.265946642434
0	467493	2180.662152464629	0.050245640636
0	467812	2182.966667295472	1.930198710953
0	468086	2183.468729837692	0.261228762238
0	469043	2188.290175627761	2.824151454623
0	469264	2188.90900265555	0.045261481782
0	469712	2191.148047018788	1.924156290361
0	470303	2192.820232370793	0.031022973675
0	470640	2195.20351872378	1.900661261255
0	471318	2197.679453862616	0.025302116118
0	471386	2197.882779266472	0.029647699012
0	471533	2198.691409849172	0.031159397724
0	471816	2199.64557279458	0.037105081982
0	472016	2200.154935885408	0.048777188744
0	472860	2203.69538743104	2.21692056523
0	472988	2204.021368340595	0.026035200772
0	473122	2204.525631010807	0.03958771651
0	473273	2205.147891792868	0.038720950534
0	473402	2205.489574464965	0.040844720227
0	473755	2207.198123742358	1.215349284161
0	475124	2213.836426663183	3.665415848945
0	475767	2217.290329877267	2.431158141145
0	475855	2217.523574483841	0.026089340318
0	476922	2221.917478432897	2.106045360634
0	477041	2222.263701681386	0.036915267153
0	477235	2223.096524876847	0.036979684626
0	478037	2226.320254999156	0.036917236392
0	478230	2227.045593880433	0.717369729303
0	478288	2227.261511401848	0.021545106981
0	478560	2228.91119266118	0.785749971526
0	478778	2229.816456262266	0.040662806525
0	478857	2230.045486856806	0.03212011191
0	479129	2230.752950332052	0.034932777445
0	479360	2231.4694881792	0.027147570016
0	479815	2234.514308958433	1.612699540971
0	479975	2235.18478423451	0.057579838199
0	480157	2235.762987617016	0.017541424354
0	480424	2236.997354571489	0.30081326628
0	480678	2238.277664743002	0.285773282425
0	480770	2238.526238540342	0.026663254222
0	481041	2239.483652923202	0.04136048547
0	481311	2240.476323156114	0.058320945276
0	481808	2243.70867812048	2.899783045314
0	481909	2244.031905963294	0.053399855076
0	482574	2247.732685529593	1.945035138785
0	483061	2250.426063771698	0.59481591929
0	483254	2251.299782299029	0.03748955825
0	483871	2254.755329528903	2.117009121782
0	484311	2255.967037069937	1.191268648858
0	484701	2258.851668356129	1.643149648291
0	485291	2261.022462891778	0.271707858815
0	485708	2263.881809653902	2.512630147726
0	485861	2264.181044709718	0.048857070391
0	486268	2265.843578389588	0.048422255552
0	486633	2268.509277282725	1.75525619055
0	487807	2273.469733947445	0.605308023317
0	488029	2274.784036095207	0.888612427379
0	488245	2275.928808489877	0.289179685865
0	488565	2277.366146669963	0.26607933457
0	488971	2278.913383271955	0.321454525178
0	489050	2279.147505191059	0.036475849937
0	489199	2279.819237241362	0.03284418651
0	489693	2281.757464432309	0.049563553963
0	489885	2282.475992873102	0.046575213081
0	490281	2284.128969430441	0.986291122382
0	490807	2286.063906215079	0.038493935084
0	490894	2286.300305118135	0.03434140531
0	490953	2286.461836271881	0.029610996779
0	491744	2290.620265430756	0.53884334595
0	492676	2295.761850348768	2.351606719018
0	492841	2296.089840162968	0.038601442435
0	492960	2296.428126942293	0.033739285641
0	493672	2300.237293989018	0.356860861804
0	494349	2304.3599483617	2.424738406059
0	494549	2304.933038217052	0.044131478387
0	494639	2305.192876041546	0.027759164318
0	494966	2306.20620730177	0.032809464218
0	495165	2306.768001053194	0.037164506372
0	495242	2307.097868401925	0.033037458846
0	496071	2310.751704932315	0.047379930327
0	496447	2313.348048503447	1.28235503668
0	496709	2314.073960821459	0.579590665027
0	497012	2315.2858841414	0.215384751463
0	497553	2317.798571341196	0.257331189388
0	497809	2318.62909049835	0.471104003705
0	498515	2321.397895905535	0.899442910158
0	498825	2322.37390686283	0.020230382831
0	499011	2322.912656546101	0.026501327826
0	499324	2325.336741594398	0.860740613973
0	499628	2326.416269122934	0.030900432212
0	500171	2329.211930991979	0.965366633443
0	500311	2329.643824936661	0.029809336121
0	501023	2332.571032622065	0.773192698409
0	501269	2333.874705833138	0.982034849648
0	502326	2338.589687414859	2.287256977207
0	502797	2340.020485258827	0.256316178744
0	502866	2340.228548299684	0.027704536421
0	503296	2341.902783710562	0.038571545508
0	503856	2344.906406211242	0.041066511599
0	504131	2346.936022586028	1.692881839921
0	504239	2347.445926915332	0.042724354702
0	504522	2348.462911678043	0.060599779784
0	505063	2351.462346308431	1.863741713491
0	505316	2352.3699950604	0.028241516561
0	505634	2353.254174352715	0.03056125633
0	506040	2356.32547995652	2.029622964622
0	506308	2357.245360850208	0.023474189506
0	507233	2361.202523424528	0.463553676226
0	507473	2362.119632370888	0.028218794915
0	507911	2364.180569726642	0.021472804619
0	508030	2364.566790011828	0.02855230659
0	508212	2365.347885997891	0.050391452165
0	508512	2367.364289258937	0.938913161421
0	508712	2368.514388698813	0.848269786432
0	509073	2369.918917129015	0.234074205912
0	509346	2371.278032904491	0.274635026189
0	509571	2371.946847607805	0.05512173558
0	510281	2374.337391821575	0.64066069601
0	510782	2375.654446146727	0.588044145715
0	511363	2379.13736697645	2.040289507658
0	511785	2380.697639797294	0.203758520886
0	512523	2384.037683952726	0.034493968408
0	512887	2385.638998834836	0.043408900059
0	513045	2386.147768853567	0.042976322077
0	514106	2392.444351373702	2.743975510005
0	514878	2396.292363635996	1.929863347921
0	515010	2396.650100194941	0.334621189636
0	515963	2400.943363109028	0.400518673538
0	516118	2401.630520157611	0.051925916912
0	516389	2403.830369410297	1.217454156143
0	517241	2407.034238430307	0.518306884149
0	517598	2408.426986026162	1.155874492614
0	517722	2408.903798021012	0.27062544815
0	518049	2410.631268977573	0.717729071071
0	518377	2411.995191070995	0.502242433105
0	518714	2413.699843927829	0.927064909214
0	518819	2414.099992829185	0.054301837053
0	518895	2414.315620473559	0.03632213508
0	519105	2415.036039598542	0.483923623192
0	519582	2418.293548668931	1.825328886998
0	519687	2418.714208562982	0.051915109616
0	520386	2422.940969013812	1.514299672322
0	520674	2423.722127231829	0.196368830942
0	520887	2424.853359267736	0.513164133731
0	521297	2427.216635014555	1.923429948234
0	521508	2427.624693802239	0.051492951126
0	521616	2428.121771819931	0.264951767795
0	521973	2430.925819923133	1.893148697225
0	522372	2432.228127355466	0.060172977315
0	522577	2432.806415330096	0.068923438287
0	522752	2434.164268689471	1.024770541672
0	522930	2435.224830533295	0.444232546343
0	523622	2438.638407900068	2.008570349823
0	524033	2439.993856444206	0.046831082372
0	524977	2443.228545607952	0.024882989095
0	525117	2443.511821706376	0.026319997253
0	525270	2443.803838590735	0.02238449789
0	525997	2447.10731431338	1.610956717106
0	526211	2447.693834782091	0.030423665506
0	526670	2450.933667226977	2.011783463179
0	526802	2451.382307330705	0.033074240973
0	528086	2456.635860217758	0.255375101231
0	528229	2456.92871786853	0.036013681637
0	528378	2457.465849481469	0.034533180405
0	528786	2460.639001681786	2.691204286349
0	529044	2461.216224607318	0.018561147124
0	529134	2461.485234787325	0.057952343271
0	529194	2461.692975434589	0.03552759129
0	529580	2463.766912078562	1.087865284987
0	530062	2465.625728559835	0.031435921614
0	530167	2465.983153615103	0.05158077332
0	530381	2467.615691959213	1.455100376367
0	530429	2467.896661504022	0.036727056953
0	530626	2468.798753692314	0.072057828935
0	531004	2470.240480874533	0.668752030545
0	531849	2474.376681497764	3.53970773546
0	532014	2474.983937942825	0.044282267976
0	532480	2477.696879365974	1.315268237769
0	533345	2482.461462620171	2.181220904534
0	534096	2486.855072725744	2.09548064036
0	534309	2487.421158174477	0.333017223793
0	534502	2488.320458525439	0.04400723066
0	534770	2489.665711573774	0.038118040317
0	535113	2491.51957062221	0.387945252905
0	535418	2492.772240079163	0.704457594548
0	535812	2493.952065539594	0.039968525509
0	536240	2496.337715963695	0.937196652288
0	536384	2496.762337664813	0.029485313279
0	536527	2497.162103539638	0.046553078444
0	536677	2497.528205043523	0.046588746517
0	536777	2497.8012644674	0.033545711229
0	537588	2501.202490544999	0.035942722494
0	537906	2503.771596200647	2.140574506624
0	538335	2505.678596361644	0.027928398438
0	538769	2508.328265625197	2.013848108187
0	539680	2513.005260388184	0.480132689984
0	539889	2513.743718498976	0.031707130031
0	540310	2515.096084958034	0.02827510806
0	540977	2518.768814081802	1.648552435102
0	541591	2521.362328842441	0.578382653519
0	542290	2524.309319009091	1.186666476022
0	542391	2524.684672932554	0.028788614614
0	542771	2527.394471737812	2.290177899189
0	542877	2527.713525413093	0.033960916904
0	543197	2528.858045203949	0.032774603722
0	543607	2531.172512600188	0.688654893667
0	543821	2531.874358301902	0.030733765286
0	544148	2533.160001798242	0.03552817395
0	544797	2536.614121530752	1.73534899658
0	545505	2539.242744828636	0.032222526951
0	546006	2541.100638345842	0.441221731985
0	546597	2543.802747957316	1.877882768104
0	546663	2544.032289346521	0.057705055714
0	546718	2544.268773650229	0.079591795195
0	547069	2545.793922351156	0.03711376938
0	547672	2548.477043078781	1.795320733355
0	547725	2548.724393136488	0.034914881224
0	548076	2550.13067999705	0.741581198926
0	548328	2550.735227344373	0.291048420123
0	549133	2555.319054594461	2.997396288908
0	549383	2556.04494217639	0.439831565379
0	549915	2559.08160240242	1.736549761892
0	550018	2559.411192975979	0.033342135328
0	550491	2560.939487299664	0.035506657981
0	550884	2563.752903446352	2.318433871207
0	551195	2564.899613660192	0.247667448372
0	551254	2565.187959615381	0.028287057157
0	551674	2566.85150493701	0.058693591334
0	552170	2568.771231806064	0.02290847417
0	552349	2569.422301066327	0.311726522737
0	552905	2571.307457156575	0.044704176531
0	553665	2575.063503216338	2.657666418951
0	554472	2579.230238320642	2.333473276209
0	554663	2579.993083393561	0.046003127411
0	555200	2583.191662815373	2.251160482044
0	555795	2586.079311530673	0.921203895727
0	555895	2586.46916454511	0.045601725438
0	556107	2587.466020459526	0.042268526394
0	556264	2588.113136238583	0.037547450479
0	556361	2588.401626643847	0.043343932305
0	556687	2589.48860402907	0.341643035037
0	556947	2590.063871819463	0.270060339622
0	557611	2594.115874905761	2.849987551231
0	557786	2594.738762557369	0.031949016227
0	558429	2598.102388905024	1.214638278229
0	558815	2599.498991340116	0.041463797681
0	558922	2599.853238757645	0.028361660607
0	559495	2603.393308968067	1.845601485086
0	559678	2603.891325989217	0.029433791222
0	559782	2604.130575124147	0.039038380258
0	560224	2607.51593280661	2.103092123187
0	560368	2607.882079988153	0.061568074562
0	561076	2612.092139680374	2.328659144748
0	561856	2615.373216542328	1.607159028493
0	561960	2615.73375183538	0.017612306143
0	562107	2615.977332205879	0.032431950197
0	562269	2616.330491806769	0.046500409995
0	562389	2616.785623134543	0.029748428036
0	562861	2618.280315502337	0.062723006545
0	563749	2622.925747874362	2.909798168474
0	563970	2624.111169777521	0.288494872509
0	564321	2626.048646503288	1.157616696713
0	564628	2626.925642512808	0.041542544659
0	564918	2627.997831059133	0.272903998365
0	565362	2630.571596595704	1.348669339994
0	565644	2631.533831343421	0.036791097853
0	565778	2631.969103880004	0.02637422938
0	566417	2635.449699492229	1.130586305037
0	566542	2635.929629001392	0.039213208892
0	566893	2638.211551673418	1.220456143429
0	567101	2639.013197950423	0.041955789455
0	567521	2640.799856128555	0.02230938457
0	568349	2644.038831330357	0.035676318327
0	568709	2647.219213957183	2.286560617129
0	568814	2647.528332684341	0.024278284946
0	568989	2648.369889474378	0.040745627001
0	569405	2651.263367195544	0.829450152321
0	569945	2653.015107597139	0.027991215173
0	570014	2653.242510665293	0.026347762481
0	570319	2655.738475174567	1.916978198469
0	570497	2656.436561662274	0.319505639544
0	570681	2657.245555661526	0.268280610979
0	570911	2657.801413301814	0.061307850114
0	571460	2660.208853113213	0.036949796307
0	572491	2664.65793472693	0.264016461542
0	572790	2666.824900940431	1.692643476541
0	572859	2667.10030061842	0.023733855065
0	572940	2667.307328875041	0.028714310273
0	573292	2668.562375862898	0.035616051072
0	573692	2670.160601960646	0.254557422104
0	573906	2671.241159924239	0.227108917695
0	574355	2673.998143320618	2.464386292364
0	574498	2674.295317504386	0.045093981003
0	574648	2674.845088785026	0.023151772405
0	575131	2676.823741386051	0.04006585091
0	575377	2677.685663627597	0.31914008528
0	576315	2681.795109308474	0.262560069777
0	576526	2682.370568906739	0.069036476939
0	577030	2684.669730220275	0.554467216377
0	577205	2685.387778200445	0.042013966359
0	577497	2686.669174280388	0.030882405445
0	577917	2688.363466832268	0.065004602805
0	578021	2688.672566618381	0.048246762451
0	578337	2691.050613055991	2.212717700215
0	578910	2693.548993754324	0.273087612281
0	579107	2695.938002578302	0.555638589735
0	579274	2696.500114113122	0.02652926507
0	579553	2697.188323721329	0.037304567335
0	579662	2697.494007666623	0.021856428865
0	579945	2700.175247577103	0.24197163675
0	580792	2704.950651028746	2.35341979096
0	580881	2705.222369772634	0.036929640371
0	581434	2706.481109318135	0.245803739613
0	581563	2706.691125372788	0.047749881589
0	581866	2707.387110405499	0.087750591635
0	582054	2709.612437607616	1.919883726548
0	582206	2710.255148810981	0.029645964315
0	582418	2711.256233753278	0.257620146654
0	582608	2711.759706550344	0.225517009059
0	582994	2714.425494256816	1.97278032439
0	583099	2714.761247591161	0.031873593957
0	583267	2715.218031084855	0.017821463194
0	583673	2716.073208525373	0.052859485546
0	584003	2718.245555575301	0.927930913969
0	584215	2719.002029784034	0.025012266302
0	584411	2719.855521264301	0.065216148692
0	584560	2720.427291169343	0.041837570085
0	584800	2722.422089046959	1.713502536633
0	585078	2723.524280636588	0.043755646825
0	585537	2726.559118148966	2.024135919728
0	586083	2728.586264418276	0.037234162698
0	586664	2731.87515823998	2.598942668925
0	587110	2733.637730348245	0.063021863439
0	587679	2735.901759753095	0.368375540183
0	587988	2737.493755832199	0.834208366066
0	588320	2738.746914030747	0.390584942589
0	588996	2742.804342428702	2.67626475495
0	589103	2743.087681545276	0.040802322526
0	589399	2744.192431999841	0.028181593644
0	589633	2745.238402857988	0.484806139271
0	589717	2745.512970517722	0.106068172017
0	589964	2746.945257397833	0.873385033413
0	590413	2748.554296761467	0.066605030898
0	590595	2749.040799616408	0.021486791804
0	591133	2751.267245223171	0.241697761501
0	591440	2753.082013026397	0.872705515345
0	592048	2755.157998940675	0.501142141546
0	592609	2758.445867662716	0.947403726579
0	592928	2759.578151231502	0.23739780285
0	593666	2764.06032910114	3.072043827971
0	593968	2765.104108215704	0.043271469846
0	594052	2765.342280495693	0.038239783038
0	594637	2768.70387402378	2.675500181204
0	594797	2769.155165410407	0.024997765203
0	594894	2769.527557230019	0.033375583192
0	595388	2772.377621379623	0.075983934317
0	595533	2772.935305635704	0.267444385251
0	595701	2773.583600762272	0.055853216399
0	595800	2773.976116750859	0.051118808017
0	596140	2776.278535439032	1.772399264564
0	596907	2779.693435157232	0.536215963063
0	597520	2782.032304562737	0.025500552091
0	597680	2782.552475748901	0.024427624622
0	598106	2784.475874146476	0.070855432599
0	598736	2787.890956683775	1.964531823841
0	598910	2788.232661111752	0.023310704857
0	599168	2789.164634236402	0.026287219709
0	599220	2789.382232586903	0.030822149194
0	599379	2789.885506247807	0.036244589578
0	599669	2792.076321975384	1.609676484266
0	599882	2792.926935651891	0.041474465923
0	599972	2793.26903121932	0.022424700931
0	600328	2794.778243690876	0.734523807779
0	600537	2796.198448481307	1.100897969051
0	600784	2797.487209859739	0.301370449609
0	601020	2798.432546987653	0.273795864053
0	601217	2799.52309417344	0.343451520248
0	601716	2801.204552446117	0.865151859196
0	601823	2801.466372003714	0.037296876291
0	602339	2804.491191377492	2.168590800366
0	602724	2806.226087715791	0.024676516948
0	603163	2808.062013348679	0.051602926562
0	603492	2810.243956630602	1.131597678661
0	603608	2810.568017476749	0.040564102965
0	603980	2812.020687368011	0.030534304438
0	604398	2813.739525394337	0.039909548086
0	604603	2814.680382675017	0.036815773922
0	605161	2817.840150202373	2.109389936374
0	605800	2820.613469263837	0.252218117899
0	606237	2823.471440925334	2.545505222546
0	606770	2824.835001004604	0.036553851016
0	607151	2825.749561579535	0.048959568078
0	607350	2827.073006821267	1.116308343023
0	607554	2827.866000830404	0.042308811004
0	608368	2832.211674975777	2.951687884428
0	608773	2833.492224666481	0.067323768034
0	608812	2833.653930846966	0.037154202285
0	609066	2835.37542160431	0.512621048941
0	609179	2835.705316998884	0.033135121691
0	609360	2836.386441259351	0.027071116569
0	609788	2837.694045219979	0.03674454283
0	610363	2841.649484918617	2.476343231237
0	610743	2843.133607202767	0.035082158307
0	611234	2845.382981953879	0.029212900736
0	611493	2846.455783379804	0.0455900773
0	611980	2848.327857406966	1.266045833958
0	612179	2849.250588233771	0.48436969027
0	612368	2850.377541132238	0.244489885681
0	613228	2855.23887484458	3.805685545418
0	613737	2857.510635782993	2.023288344688
0	613914	2858.040496602459	0.036382835437
0	614010	2858.535964324731	0.055686131508
0	614493	2861.680845595968	1.946512830877
0	614948	2863.451563533473	0.042815304867
0	615027	2863.806922768237	0.045223955141
0	615227	2865.186496395056	1.066193237669
0	615429	2866.167430509633	0.037275361287
0	616063	2869.571544076493	1.884650843722
0	616270	2870.541687930785	0.294498773007
0	616358	2870.854112381992	0.037135208213
0	616554	2871.9189770794	0.80671889793
0	616620	2872.134389773732	0.030815216426
0	617239	2873.96910519156	0.044773221649
0	617660	2877.015706185476	2.047917308543
0	618472	2879.601572072534	0.025713102061
0	618805	2882.12448663584	2.068724796052
0	618853	2882.34508225248	0.033458340569
0	619110	2883.308130532842	0.025579120132
0	619259	2883.767983919314	0.037660996962
0	619571	2884.927292388482	0.03795157298
0	620219	2887.643477401983	1.660122081886
0	620397	2887.952627110217	0.02778488092
0	620863	2891.250655672738	1.9900316231
0	621484	2893.115663911064	0.679620062967
0	621811	2893.743677149256	0.34134528515
0	622393	2897.117245253717	2.678982992916
0	623019	2900.65660215399	0.980552575029
0	623395	2902.076322688159	0.033888329241
0	623597	2902.680850401582	0.045610092652
0	623947	2905.410275204555	2.136554459348
0	624260	2906.612353127628	0.19157604764
0	624756	2909.93291014062	2.029679402796
0	625844	2915.561182591145	3.621470041397
0	626187	2916.931183070985	0.680665898869
0	626394	2917.664005138799	0.247954530904
0	626931	2920.083776117987	1.609646623799
0	627350	2921.057556353984	0.034983385412
0	627728	2922.47101377082	0.042869808756
0	627829	2922.864081738828	0.055765565824
0	628018	2925.134256528839	0.905652909917
0	628548	2926.819816250458	0.235126502254
0	629300	2930.5020371053	0.027728740831
0	629771	2933.312977541847	1.851637016851
0	629889	2933.833716542607	0.298086858162
0	630178	2934.630616398085	0.054319887041
0	631048	2937.861390012781	0.056472873786
0	631242	2938.700324087284	0.033638408336
0	631483	2939.740554232747	0.029579425757
0	631919	2941.741004487979	0.284045753189
0	632124	2942.658391498321	0.039819755361
0	632324	2943.819434891492	0.043099706876
0	632470	2944.330086109865	0.029591165283
0	632889	2945.818660180948	0.04134317918
0	633596	2949.875750238703	3.156039164375
0	633960	2950.752573245049	0.484282212227
0	634091	2951.20239408565	0.060774039051
0	634447	2953.523729376271	1.55410952544
0	634606	2953.999002114734	0.041692039866
0	635029	2955.916216992452	1.018296427617
0	635238	2956.482014094648	0.039496138167
0	635809	2959.627370478484	1.483477616629
0	636062	2960.537517710989	0.067504332744
0	636426	2963.193229911584	0.920764390578
0	636679	2964.269060909118	0.313825517905
0	636863	2964.674022391986	0.031740353487
0	637044	2965.25888943167	0.046329913235
0	637509	2968.504464309717	1.242604661492
0	637858	2969.335345832485	0.029922866616
0	638450	2972.761119211908	2.215024826666
0	638825	2973.61530190607	0.031071178503
0	639139	2974.60027083287	0.033148525321
0	639449	2976.589366082608	1.44612547447
0	639597	2977.303179426076	0.032879792127
0	639912	2978.494098413269	0.032725713363
0	640001	2978.729695513224	0.045055109591
0	640463	2981.628439098783	2.193593597057
0	641078	2984.703135824663	0.957199078711
0	641402	2986.636404499042	1.06629692192
0	641533	2987.364002223964	0.509690875185
0	642054	2989.204056619353	0.02494403381
0	642717	2992.374963827729	0.040478202027
0	642846	2992.737153731045	0.040983247076
0	643138	2994.018950010675	0.044628143963
0	643402	2995.059054675203	0.219797896248
0	643608	2996.303071557621	0.054668427356
0	643736	2997.0348079829	0.028480486696
0	643850	2997.546226278687	0.213239526313
0	644376	3000.51333094707	1.00735441274
0	644538	3001.608511378931	0.560684368606
0	644794	3002.554230181261	0.060122408489
0	644876	3003.017887508556	0.265800886844
0	645074	3003.660410093335	0.037250058929
0	646036	3007.840429934917	0.480150944774
0	646180	3008.268892409675	0.042006399031
0	646842	3011.488573001885	2.026055623648
0	647455	3014.389151208799	0.885529795243
0	647719	3015.500879233591	0.023621756569
0	648121	3017.514173872177	1.761604244547
0	648597	3019.404993648397	0.025210442578
0	649188	3022.747971602817	1.861900165259
0	649596	3024.444234336488	0.033003602456
0	649936	3026.241759723871	0.053817901845
0	650168	3027.326359779891	0.551726860521
0	650682	3029.116870618402	0.039831299626
0	650820	3029.643776921871	0.04522898957
0	650922	3030.146294696718	0.041978089138
0	650988	3030.379278274051	0.02175811499
0	651234	3031.39437993427	0.035847697291
0	651654	3033.044605369864	0.03665862537
0	652260	3036.646743488104	2.12937051709
0	652747	3038.141964344199	0.039599806477
0	653094	3040.016971890092	0.040949001492
0	653489	3041.40860769055	0.029287613348
0	654249	3045.880094280376	3.035249490944
0	654705	3048.224208332847	1.237572768795
0	654964	3049.118350992068	0.034826022374
0	655676	3053.401012479135	2.920238672356
0	655779	3053.773013496005	0.029438981797
0	655935	3054.487881316541	0.025732236821
0	656079	3055.130098030108	0.026780343904
0	656358	3056.624821192171	0.032977595044
0	656882	3059.243084150151	0.304840036962
0	657097	3060.93055985487	1.384795180026
0	657312	3062.031145589014	0.41122627421
0	658049	3065.780125702535	1.019930727158
0	658480	3067.156510921595	0.036533860497
0	658628	3067.539969966063	0.028143543691
0	658867	3068.159035969866	0.037645735759
0	658966	3068.55206695897	0.050291453545
0	659530	3071.808095610065	0.839498191286
0	660900	3078.443614759994	2.654815677074
0	661091	3078.967379261961	0.264564277799
0	661197	3079.185940849373	0.051722328586
0	661649	3082.353903557204	1.691412426177
0	662100	3083.61288039353	0.051541070485
0	662545	3086.34021265189	0.966138811553
0	662688	3087.16407224582	0.027489367349
0	662900	3087.940506019722	0.046412231087
0	663151	3088.969071857204	0.44464879957
0	663514	3091.010519804801	1.716143660555
0	663772	3091.782417906528	0.038517460985
0	663995	3092.761448177593	0.044285739789
0	664362	3094.136986727332	0.239488324468
0	664655	3095.46127696231	0.038919561892
0	664713	3095.64885524396	0.04432934586
0	665358	3099.627664616959	2.141266397138
0	666361	3103.429127746722	0.022394066312
0	666751	3105.939410383499	1.851020793021
0	667109	3106.974202228669	0.040662632339
0	667336	3108.046115535862	0.496784273684
0	667428	3108.679004543024	0.264979185618
0	667707	3110.318829153893	0.494449687603
0	668115	3112.308309023387	0.044639906852
0	668547	3114.565779319016	1.039736269554
0	668805	3115.351557371826	0.03101719895
0	669202	3116.88381019405	0.237176048654
0	669636	3119.033483247413	0.24575082164
0	670389	3122.860931594693	0.57279286847
0	670647	3124.348813274554	0.844130398819
0	671008	3125.687963017502	0.034491495354
0	671216	3126.591538989674	0.464927969871
0	671639	3129.260917933619	1.950947863987
0	672272	3132.351966297024	0.572971623523
0	673372	3138.248857464795	2.705386951825
0	673875	3140.938752751877	0.693042607496
0	674392	3144.261749948079	2.925585889275
0	674810	3145.786977185406	0.036219836641
0	675241	3147.620778346647	0.959173946424
0	675470	3148.764737819332	0.029544075362
0	675974	3151.354079652645	0.260765027427
0	676043	3151.555790417186	0.030789329311
0	676615	3154.627661705756	2.283560577064
0	676834	3155.633512179106	0.758630584084
0	676932	3155.854330445347	0.218381172503
0	677127	3156.502928849577	0.029467195578
0	677440	3158.015166163482	0.030122209876
0	678449	3162.442072521608	0.03720275942
0	678915	3165.540212854416	2.634899029292
0	679173	3166.587283373248	0.038244534948
0	679567	3169.216304187474	1.520807891306
0	679887	3170.314566405962	0.076381762536
0	680354	3173.508682249733	2.463465118409
0	680490	3173.866788998935	0.048429259534
0	681531	3179.040568667623	0.554330933916
0	681944	3181.431611447115	1.166390799041
0	682144	3182.293214574392	0.470246428274
0	682250	3182.530822822613	0.030947556537
0	682352	3182.847917483849	0.036552885549
0	682511	3183.711811273365	0.542033135582
0	683185	3187.445604470382	1.798758820577
0	683293	3188.044318074652	0.25776571797
0	683674	3189.784690105874	0.041567641061
0	684196	3191.681739010214	0.247407005697
0	684817	3195.310381370628	2.462235481854
0	685144	3196.106539290548	0.030126772476
0	685234	3196.442185097669	0.026415983706
0	685623	3199.241113642443	2.119409177236
0	685963	3200.403128481691	0.065046167822
0	686445	3203.09549347069	1.877581836001
0	686806	3204.620861860772	0.023878238923
0	686953	3204.942657158151	0.031770850884
0	687105	3205.339170774525	0.220344432233
0	687527	3206.45040055109	0.022830798934
0	688134	3209.241575812034	0.049352090845
0	688710	3211.38377529402	0.315778255834
0	689069	3213.599185993888	1.761356546051
0	689281	3214.012901707284	0.04599708268
0	689736	3216.105631808551	0.057248063257
0	690012	3218.31668393104	1.766112178458
0	690461	3220.705753130137	0.609942101149
0	690673	3222.151553337556	0.891695133405
0	690874	3223.341965279257	0.504541113329
0	690957	3223.665660401945	0.031346751603
[...]
3	1094684	5113.460860012497	0.11155894846
3	1095471	5117.728257362572	2.199707033444
3	1095717	5118.564543142752	0.30088958437
3	1096580	5122.709664080019	3.313955879373
3	1096654	5122.858332602225	0.082125922916
3	1097727	5128.785985578908	5.302878448592
3	1098726	5133.402698020408	3.039695092199
3	1098782	5133.603527804171	0.072299556561
3	1098949	5134.075636421736	0.074316842035
3	1099275	5135.145492646704	0.092714961304
3	1100213	5139.386442729357	4.077777150459
3	1100276	5139.511970001981	0.075016005853
3	1101597	5146.584444689114	6.045469002707
3	1101750	5147.277073701657	0.633371214999
3	1101812	5147.47404808871	0.830345602052
3	1104120	5160.014529297297	10.540308061771
3	1104125	5160.056841003784	10.582619768258
3	1104613	5162.268960410415	0.641142541972
3	1104805	5162.985028885535	0.050307815266
3	1105122	5164.30876631691	0.570819929639
3	1105612	5166.608468837911	0.314945433733
3	1105698	5166.875087677344	0.106119518982
3	1105754	5167.011468632803	0.071858901797
3	1105869	5167.266680770984	0.327071039978
3	1106438	5169.681711424483	1.468668339342
3	1106699	5170.508722217139	0.090384937627
3	1107359	5173.239501935582	2.362091698852
3	1107498	5173.489030211036	0.112739050422
3	1107618	5173.877921992089	0.077017860364
3	1107932	5174.777648875825	0.108771181285
3	1108732	5178.226073365791	3.241470336417
3	1108819	5178.408851938351	0.078494808493
3	1108879	5178.62803513997	0.217085321225
3	1108969	5178.89346057169	0.127099977254
3	1109559	5180.500784408062	0.722345948247
3	1109835	5181.138202031238	0.141134888782
3	1110632	5185.701391583308	0.669037173324
3	1110800	5186.032776265382	0.250797801352
3	1111641	5190.488101755982	2.124267720148
3	1111827	5190.98280805712	0.10214574559
3	1112685	5195.581669185022	3.819260439405
3	1112752	5195.73125281523	0.133688340909
3	1113339	5199.113737843469	0.806926783499
3	1113529	5199.795419502632	0.100124216827
3	1113635	5200.071425510423	0.230823472152
3	1114092	5202.890904562384	2.571671700807
3	1114524	5204.224408606896	0.153639009661
3	1115002	5206.712927552373	1.704235663279
3	1115079	5206.880596289987	0.108215701979
3	1115591	5209.206682231347	2.028640973143
3	1115714	5209.866467013575	0.574959719499
3	1116068	5211.271201497001	0.426176173872
3	1116100	5211.321283254401	0.049039919822
3	1116770	5214.716423125577	2.84414370613
3	1117028	5215.392809799451	0.657378244524
3	1118327	5220.775029566269	4.62975112133
3	1118547	5221.341813215896	0.113297780198
3	1118615	5221.491845977282	0.091128617245
3	1118793	5222.030888619701	0.071025431985
3	1118874	5222.133837975322	0.096999604716
3	1119018	5222.416769025267	0.083971516608
3	1119595	5225.348563460062	2.584181675546
3	1120160	5227.231585570217	1.136074529875
3	1120624	5229.825139419705	1.733540469332
3	1120709	5230.050264464219	0.085461859036
3	1121330	5233.870263101871	3.059184380827
3	1121432	5234.031693249852	0.090628922841
3	1121662	5234.673237693944	0.128193927907
3	1121710	5234.773382531218	0.073653754317
3	1122279	5238.473722053069	3.117239137649
3	1122356	5238.693805818711	0.071027889293
3	1122951	5242.504538323185	3.089422989343
3	1123167	5243.257109978109	0.216501692399
3	1123321	5243.766251776036	0.09104847408
3	1124024	5247.816434755203	3.143965045286
3	1124754	5251.600087730409	3.416223112104
3	1125673	5256.131443531789	3.718620367204
3	1126142	5258.053882157302	0.089210405212
3	1126714	5261.339213470498	3.1557608301
3	1126854	5261.844522869987	0.171199697857
3	1127409	5264.895158943762	2.607137652602
3	1127602	5265.403995415542	0.109364413171
3	1127667	5265.498871283471	0.074761228129
3	1127781	5265.76955487499	0.121349375041
3	1127919	5266.317052244728	0.096721344724
3	1127959	5266.423777734185	0.076015461229
3	1127978	5266.502187019621	0.068816904509
3	1128264	5269.11435143036	2.492361362825
3	1129308	5273.72595467126	0.885616381625
3	1129827	5275.1848095232	0.054300916179
3	1130084	5275.986695286175	0.643850489614
3	1130607	5278.11755648681	1.58976687442
3	1131025	5280.0126553854	1.07492950304
3	1132613	5287.586478902456	5.739637223822
3	1132709	5287.924385100728	6.077543422094
3	1132785	5288.184762365407	0.082183991202
3	1134331	5296.236406880747	7.099863798648
3	1135041	5299.900432616353	2.39737235876
3	1136233	5305.540006790745	3.679809997527
3	1137519	5311.855772172861	2.743972786618
3	1137583	5311.971039628413	0.107679039174
3	1138085	5314.273945190092	2.140104753545
3	1138997	5318.941799699416	3.619338461171
3	1139419	5320.203390507334	0.0594602174
3	1139573	5320.634225621001	0.204037189071
3	1140070	5324.194989304326	2.638591166043
3	1140157	5324.466873672	0.10687336645
3	1140425	5325.208302026587	0.103499439724
3	1140960	5328.421335224405	2.112247002583
3	1141462	5329.980629154633	0.108305199698
3	1141881	5333.048603089759	3.064160993887
3	1141989	5333.227710552046	3.243268456174
3	1142972	5338.150639083324	3.692672633745
3	1143955	5342.542600426032	3.205419805972
3	1144654	5346.672629115174	2.626303157736
3	1144720	5346.874804798017	0.087516586615
3	1146520	5355.982917690851	7.691361462191
3	1147196	5359.935454419828	0.605874040071
3	1147894	5363.332238469916	3.329111214454
3	1147988	5363.640229179832	3.63710192437
3	1148718	5367.727717344539	3.69390855945
3	1148880	5368.194125965447	0.144125575167
3	1149699	5372.514329959602	2.767081764537
3	1149830	5372.728652296632	2.981404101567
3	1150013	5373.526187747526	0.062383649302
3	1150546	5377.06372828993	3.219717776958
3	1151344	5381.176597004322	0.555915063864
3	1153065	5389.738276410487	4.805892658727
3	1153635	5392.691537504913	1.74538041775
3	1154488	5397.16984640632	1.629690695187
3	1154893	5398.457158686784	0.113814296216
3	1155540	5402.286282127408	3.192362429085
3	1155627	5402.574136536187	0.075613101232
3	1156059	5404.09858638434	0.593829706795
3	1156431	5405.401481504331	1.218684993184
3	1157798	5412.361814961073	5.594806159771
3	1157908	5412.564798926917	5.797790125615
3	1158039	5413.071183206879	0.044708952551
3	1158143	5413.317608489114	0.228186869029
3	1159723	5421.219861060469	7.506431818158
3	1159752	5421.333569177844	0.044189761614
3	1160673	5425.53440229079	3.3230416149
3	1160905	5426.614596731621	0.61058850007
3	1161507	5430.128154260864	3.202268680851
3	1162275	5434.47081067867	3.159748065568
3	1162463	5434.824690313408	0.089282960037
3	1163047	5438.796322044353	1.626296485415
3	1163436	5440.022455685175	0.652700841097
3	1164315	5443.413680609243	2.145928998963
3	1165162	5447.793416330405	1.854250542126
3	1165222	5448.00369623389	0.110394820992
3	1165988	5452.31010829048	3.14328938865
3	1166026	5452.364643435071	3.197824533241
3	1166135	5452.711504583734	0.289284512462
3	1166366	5453.90241626883	0.587797732645
3	1168039	5463.051573616796	8.503263838183
3	1168820	5466.901128996943	3.097343637205
3	1169070	5468.056391613502	0.0690496843
3	1169566	5470.166292073972	1.790855856407
3	1169684	5470.604455864241	0.138232236258
3	1170019	5471.863006862486	0.564708795328
3	1170456	5474.33228244737	2.196724946742
3	1170916	5475.754734544799	1.054372664121
3	1171738	5479.895928512203	3.229630380225
3	1171862	5480.329505209982	0.102998463724
3	1172793	5484.640093871148	3.586348607898
3	1172906	5484.960866645105	0.153955618656
3	1172969	5485.096657444599	0.076761112924
3	1173831	5488.968543745113	2.296690800419
3	1174302	5489.690760394062	0.097881202556
3	1174844	5492.927605987604	2.108298519259
3	1175259	5493.696436352004	0.359667318003
3	1175443	5494.110904229383	0.085142971178
3	1176119	5498.087323459826	2.655979111523
3	1176242	5498.458256566671	0.146200420744
3	1176319	5498.611548608195	0.108484149802
3	1177556	5503.160833275688	2.643096182974
3	1177622	5503.373264275645	0.115780875407
3	1178638	5507.817287002978	2.847907330787
3	1179520	5512.091239019179	0.324971266909
3	1180079	5514.677945659336	1.80113600402
3	1180495	5516.896158548453	2.085133243702
3	1181816	5523.465401847293	6.000829915769
3	1181911	5523.69489440112	6.230322469596
3	1182774	5527.924358019873	2.804163958396
3	1182928	5528.321899690333	0.314031246158
3	1183569	5532.327576582714	3.986639822581
3	1183643	5532.48332302733	4.142386267197
3	1183904	5533.340073257285	0.087530964789
3	1184578	5536.707532058619	2.168725435394
3	1184710	5537.163443302608	0.064414052472
3	1185409	5541.486304965742	2.735029941137
3	1185681	5542.604187946145	0.753328977774
3	1186351	5544.918211782707	1.597535512085
3	1187027	5547.59558199358	1.811811471277
3	1187767	5551.573368150365	1.105231045309
3	1187859	5552.04343020646	0.046906783194
3	1188691	5555.98410833184	3.686043734896
3	1189800	5562.039150107467	2.650775395467
3	1190200	5563.455388550708	1.109193620783
3	1190297	5563.740882098895	0.098682562293
3	1190384	5564.075314699689	0.144390999632
3	1190854	5566.279727176786	1.875003916043
3	1191491	5569.290572957689	2.693485233312
3	1191782	5570.485475138664	0.102178756085
3	1192509	5574.897840262737	3.574406426681
3	1193202	5578.923359527387	2.77068393198
3	1193255	5579.043383256014	0.043881697821
3	1194125	5583.862030461765	2.209651498197
3	1194942	5588.138479989219	1.682402793049
3	1195128	5588.626767738886	0.122176244397
3	1195731	5590.928073588825	2.240625491623
3	1195809	5591.346301791322	2.65885369412
3	1196041	5592.233608793086	0.626120102482
3	1196517	5593.762715023084	1.122638429031
3	1197814	5599.815576278914	3.286861204934
3	1198282	5602.000961946705	1.597835283837
3	1198343	5602.087926915649	0.075817679696
3	1198512	5602.602894240812	0.071169975862
3	1198586	5602.766865375238	0.111454197966
3	1199238	5605.787498339031	0.670221493761
3	1199567	5606.91196273277	0.622226605422
3	1200032	5609.634560065044	2.484256819037
3	1201077	5614.075337978567	4.209730519034
3	1202397	5620.339574457961	3.675305313638
3	1202821	5622.709323648006	1.716247927867
3	1203836	5627.638189797325	3.272768745246
3	1204035	5628.319279606926	0.105289832602
3	1204090	5628.545947903294	0.06904422116
3	1204247	5629.117246726805	0.100003726345
3	1205348	5634.167761117021	1.763898041421
3	1205354	5634.1744736886	1.770610613
3	1205531	5634.970838453145	0.601705655717
3	1206099	5638.383092976139	2.120291998211
3	1206106	5638.407851965792	2.145050987864
3	1206542	5639.757022151656	0.640895356421
3	1207035	5642.801972344044	2.662809204983
3	1207277	5643.73037679357	0.080128214116
3	1208052	5647.852444245817	3.301224394295
3	1208709	5651.751548655172	3.761546141342
3	1208981	5652.569208866969	0.094148320821
3	1209125	5653.315834043841	0.092309836227
3	1209218	5653.658671669987	0.064653652409
3	1209848	5656.318195369471	2.135217534846
3	1210148	5658.148008618724	1.655192366726
3	1210778	5661.088749031009	2.899743929597
3	1211140	5662.156448335203	0.100413387532
3	1212101	5667.534832881146	3.696055112423
3	1212544	5669.401571379546	0.089419429943
3	1212592	5669.617436601008	0.083417683292
3	1213047	5671.853630137809	0.233615591965
3	1213500	5673.336974129992	0.61625670869
3	1213732	5674.170841291726	0.086210491462
3	1213935	5674.678345703833	0.152737958029
3	1214912	5678.735816252644	2.584659522507
3	1215622	5681.977896189496	1.188723057845
3	1216364	5685.548218792772	1.15365720102
3	1216679	5686.967121553443	1.293172155574
3	1217479	5689.968303663323	1.571484342067
3	1217984	5692.434049569534	2.082591096733
3	1218251	5693.088664441415	0.132042195575
3	1218389	5693.637603423774	0.084286719926
3	1219774	5701.377560167239	6.333326579238
3	1220300	5703.796011940175	0.235527697984
3	1220598	5705.071103543362	0.123489838319
3	1220775	5705.49421240922	0.101626168603
3	1221320	5708.449842932455	2.745171062987
3	1221717	5709.90304900559	0.110428335211
3	1222456	5713.553460802935	1.70809156583
3	1222639	5713.967024771266	0.093840720267
3	1222728	5714.124129652736	0.133047498004
3	1223532	5718.365279921084	4.183808909482
3	1223761	5719.054628896052	0.63160508112
3	1224147	5720.102967036802	0.642478911725
3	1224230	5720.303652533648	0.163260780052
3	1224326	5720.500319602702	0.359927849106
3	1224566	5721.614827198339	0.20592753647
3	1224894	5723.891095101937	1.525408200611
3	1224933	5723.948380852544	1.582693951218
3	1225265	5725.182356410169	0.097968476835
3	1226215	5730.131309291674	4.232094933051
3	1226852	5733.709269034085	1.140006544222
3	1226984	5734.222338480995	0.118283501863
3	1227282	5734.823289325422	0.102188973447
3	1228237	5739.604763397504	4.271856221854
3	1229170	5744.440102750213	4.171850627333
3	1229286	5744.914155153267	0.061739102472
3	1230390	5750.292423580213	5.363310612036
3	1230497	5750.500934473348	5.571821505171
3	1230536	5750.591705194283	0.087097866117
3	1231157	5754.585755824701	3.383940248536
3	1231274	5754.968136279378	0.152368809659
3	1231636	5756.139186556137	0.0904843402
3	1231755	5756.474142539921	0.286148395425
3	1232339	5759.442008695762	2.144447581653
3	1232454	5759.577006879545	0.100914523438
3	1232534	5759.71405505096	0.115541915503
3	1233747	5764.238493301671	3.654849047498
3	1234407	5767.589825425535	2.934366354622
3	1234533	5767.957117814586	0.110200845515
3	1235182	5771.065979787544	2.123586687944
3	1235449	5771.970010814096	0.145640718163
3	1235512	5772.073279863187	0.083480654378
3	1236228	5774.839920035639	2.145571382592
3	1237166	5779.506642268355	0.137998662062
3	1237720	5782.914878361757	3.237358466304
3	1237804	5783.051909256703	0.132089903662
3	1238581	5787.147509119673	1.615472882449
3	1238697	5787.470144254121	0.052280876342
3	1238869	5788.18757337621	0.047466583974
3	1239651	5792.392863232625	3.259583797699
3	1239727	5792.70046850582	0.232497155004
3	1240294	5795.916077540768	3.186404965882
3	1240481	5796.664972353795	0.585914590528
3	1240558	5797.010092800901	0.079688086579
3	1240608	5797.180296557907	0.101469890461
3	1241379	5800.666154468802	1.335171811333
3	1241526	5801.194152859875	0.125908627948
3	1242297	5804.604139501424	3.195404272132
3	1243318	5809.021462544344	3.893900359516
3	1244118	5813.526068041831	2.400482550054
3	1244564	5815.157835462304	0.123439707584
3	1245117	5818.182736494934	2.371895842653
3	1245194	5818.376200460455	0.127588605714
3	1245395	5819.129595127765	0.233437966255
3	1245866	5822.493322822086	2.353963014422
3	1245956	5822.669487143685	0.130504146625
3	1246095	5823.194342527575	0.204247166476
3	1247323	5826.667406926091	1.713581735248
3	1247509	5827.496093388263	0.61537763212
3	1248156	5831.205282139433	3.181656930415
3	1248380	5832.047256342815	0.089232667646
3	1248607	5833.070881290451	0.646964671256
3	1249152	5835.519108188353	2.00252329208
3	1250061	5840.128543798199	2.833377579273
3	1250422	5841.243606732998	0.124492936057
3	1250510	5841.516518525757	0.397404728816
3	1251324	5846.170006447804	2.59989812872
3	1252117	5849.057504943857	1.2113762246
3	1252209	5849.351994009431	1.505865290174
3	1252611	5850.811141464577	0.595083813534
3	1253030	5853.191337630981	2.146100529892
3	1253133	5853.476073121198	2.430836020109
3	1253254	5853.758092826685	0.079927986456
3	1253385	5854.297399327237	0.068787078152
3	1253469	5854.596212390866	0.121221425544
3	1253624	5855.243453638115	0.115215850629
3	1254348	5858.568060933813	3.168994870936
3	1254530	5859.439500078427	0.067022432198
3	1255177	5862.374060922846	2.556791582983
3	1256074	5866.948583857177	4.272269058428
3	1256248	5867.621189867716	0.080722429477
3	1256315	5867.742777476636	0.066570750673
3	1256805	5871.282660669264	1.08354355225
3	1257754	5875.516926900081	1.804127224331
3	1259242	5881.866817189844	5.653857632118
3	1259802	5885.648744867449	3.407699192838
3	1260538	5888.887079755569	1.577139787577
3	1260612	5889.15332755833	1.843387590338
3	1261619	5894.445412095034	2.773507622386
3	1261754	5894.867938019012	0.160221139805
3	1262538	5898.979159331561	3.771046880751
3	1262597	5899.194592146325	0.123511113328
3	1263068	5902.68010029444	2.077834237868
3	1263261	5903.195437919638	2.593171863066
3	1263341	5903.531898344805	0.102086824426
3	1264309	5908.284768294287	3.206655416431
3	1264468	5908.680241311858	0.115674310296
3	1264775	5909.909684409582	0.092247796051
3	1265351	5913.133032338443	2.791572327652
3	1265561	5913.699617142933	0.120536079568
3	1265668	5914.006105411963	0.07263060619
3	1265769	5914.249998386058	0.100942827253
3	1266537	5918.278976181737	2.138542010627
3	1267355	5922.494308377708	3.813190166727
3	1268128	5926.832746816131	2.744764735833
3	1268369	5927.933913380848	0.633664001343
3	1268407	5928.035676812131	0.089421605435
3	1269989	5935.365284076759	5.928592614391
3	1270232	5936.096715520494	0.131306099836
3	1270339	5936.737521739912	0.083621681226
3	1271131	5940.427236691355	3.668977229694
3	1271836	5944.245458481751	2.656433466591
3	1271927	5944.683684595304	3.094659580144
3	1272833	5949.732948696353	3.662507687225
3	1272938	5950.128061752498	0.094524803944
3	1273562	5953.018583460044	1.592148908758
3	1273609	5953.083265413412	1.656830862126
3	1273660	5953.247668572694	0.09067257455
3	1274039	5954.443338738145	0.077861170824
3	1274094	5954.671088606114	0.305611038793
3	1274455	5957.517043609256	2.663733325868
3	1275559	5962.500054355226	3.242929332889
3	1276602	5967.136570982824	2.686647532829
3	1277371	5970.860053279121	2.139816368742
3	1278310	5975.383460393323	1.50331032745
3	1278335	5975.413521856287	1.533371790414
3	1279162	5980.097240809244	3.47508790648
3	1279218	5980.243701836249	0.084650175691
3	1279369	5980.790589014071	0.214458073523
3	1279862	5983.716787547233	0.073012814328
3	1280601	5987.979670479118	3.307112892829
3	1280999	5989.552811038854	0.075087878274
3	1282065	5994.50923941168	4.158664299825
3	1282821	5997.901405577578	2.586408741104
3	1283724	6002.64120485383	2.692624605171
3	1283824	6003.051588628982	0.099197485532
3	1284566	6006.818354445318	3.330650245283
3	1285520	6011.427944157041	3.790228435256
3	1285901	6013.308530142637	1.636402607671
3	1286448	6016.094097563775	2.105516727441
3	1286801	6017.470351949591	0.641320350394
3	1287489	6021.076408653747	3.163521728787
3	1288754	6026.963485964768	3.094834389684
3	1289213	6029.090994047088	1.72455518869
3	1289642	6030.716849163408	1.077048488377
3	1289714	6031.005275145237	1.365474470206
3	1289892	6031.732976921483	0.058288598192
3	1290005	6032.241131627231	0.077906402141
3	1290988	6036.149688549594	2.389340596322
3	1291079	6036.513593936223	0.121094150936
3	1291540	6038.012689253833	0.102426776861
3	1292160	6041.123086817322	2.64108623418
3	1292390	6042.236689586681	3.754689003539
3	1292905	6045.533817633452	2.58045534211
3	1293174	6046.458148562645	0.115072781685
3	1294088	6050.535363710678	1.922712755706
3	1294179	6050.783123949353	0.109348409523
3	1294345	6051.170865780369	0.10806556953
3	1295165	6055.424284942191	4.220036964923
3	1296724	6063.679278393816	0.817837400691
3	1297423	6067.279890913066	3.170069121034
3	1298062	6071.103886879291	3.757722194201
3	1298182	6071.410634403535	4.064469718445
3	1299055	6075.48912205121	3.300573705399
3	1299368	6076.63641188042	0.076762603405
3	1300072	6080.636460695166	3.106634453449
3	1300282	6081.178585810605	0.242493659298
3	1301435	6086.484758274706	4.561769899496
3	1302125	6089.005491147483	1.554065184143
3	1302617	6090.76195091378	1.437207327107
3	1302766	6091.154553127755	0.112123040334
3	1303483	6095.296078333104	2.656763313274
3	1303540	6095.500101704507	0.067502992797
3	1304106	6098.063898285977	2.078104280569
3	1304117	6098.083023636033	2.097229630625
3	1305022	6102.204508888249	3.715548802174
3	1305030	6102.210192750595	3.72123266452
3	1305376	6104.094959325819	1.088948497528
3	1305863	6106.64522851889	1.452314667525
3	1305989	6107.287486903593	0.051878037065
3	1306260	6108.408005369225	0.602319025744
3	1307074	6112.559464962265	4.016631705127
3	1307155	6112.802402321209	0.126288385906
3	1307718	6115.620844708756	2.459582586778
3	1308279	6117.559756970771	0.103295286257
3	1308820	6119.970406725212	2.34613089863
3	1309193	6121.628906409132	0.657787582438
3	1309832	6124.927931873584	2.663072280399
3	1310571	6129.369070406374	2.107342680716
3	1310952	6130.77674118767	0.610828108236
3	1311394	6134.05322276173	2.083802069015
3	1312416	6139.439824794934	3.870694236242
3	1312843	6141.032888354035	0.612542408999
3	1313737	6145.060574680437	3.912031992477
3	1313795	6145.307226064482	0.086526927718
3	1314909	6150.495454606992	2.648400766124

