version 2
run General-0-20220719-21:30:50-11356
attr configname General
attr datetime 20220719-21:30:50
attr experiment General
attr inifile omnetpp.ini
attr iterationvars ""
attr iterationvarsf ""
attr measurement ""
attr network Raft
attr processid 11356
attr repetition 0
attr replication #0
attr resultdir results
attr runnumber 0
attr seedset 0
param Raft.numServers 5
param Raft.numClients 2
param Raft.channel_omission_probability 0.01
param Raft.networkDelaysPresent true
param Raft.displayLogs false
param Raft.disableStatsCollector false
param Raft.server_node[*].server.canFail true
param Raft.server_node[*].server.server_failure_probability 0.2
param Raft.server_node[*].server.leader_failure_probability 0.2
param Raft.client_node[*].client.sendCommandTimeout 0.3s
param Raft.server_node[*].queue_servers[*].avgServiceTime 0.007s
param Raft.server_node[*].queue_clients[*].avgServiceTime 0.007s

vector 0 Raft.statsCollector consensusTime:vector ETV
attr interpolationmode linear
attr title "Time required to reach consensus on a new leader, since network is leaderless, vector"
attr unit s
vector 1 Raft.statsCollector consensusMessages:vector ETV
attr interpolationmode linear
attr title "Number of messages exchanged on the network to reach consensus among servers, vector"
vector 2 Raft.client_node[1].client commandResponseTime:vector ETV
attr interpolationmode linear
attr title "Total response time of client request, vector"
attr unit s
vector 3 Raft.client_node[0].client commandResponseTime:vector ETV
attr interpolationmode linear
attr title "Total response time of client request, vector"
attr unit s
vector 4 Raft.statsCollector timeToRecoverLog:vector ETV
attr interpolationmode linear
attr title "Time required for a server to recover its log to the most up to date version possible, vector"
attr unit s
0	54	0.245040872249	0.031492652731
0	180	0.52913542229	0.027671787525
0	1456	3.107781643494	0.030767097519
0	2717	5.938547303476	0.218301021366
0	4265	9.57478560813	0.022656074551
0	5745	12.766365454042	0.029321448613
0	6119	13.485089603943	0.024927798694
0	7412	17.016667368668	0.319838041097
0	8970	20.339345699478	0.02173808558
0	9119	20.612945746275	0.032252304931
0	9381	21.452873864935	0.021989888809
0	12737	28.813421930252	0.040816047563
0	12956	29.450884403797	0.019089903206
0	13385	30.82911106086	0.01923979245
0	14111	32.472382566424	0.024062566048
0	14231	32.736108671152	0.04083584615
0	14343	32.99367913182	0.029662470032
0	14932	34.345814188278	0.462648003495
0	15050	34.623379439196	0.034884509914
0	17841	41.269174882964	0.026431975989
0	19425	45.23387220481	0.020282347298
0	19527	45.583593173522	0.06415103288
0	21286	49.703471268759	0.264646273799
0	21511	50.530285865494	0.282977009346
0	22807	53.243470068947	0.027185004416
0	22931	53.439874611787	0.01999254065
0	23631	54.953874171745	0.033712683877
0	23987	55.844338943177	0.253424472263
0	24064	56.05229805516	0.031068308394
0	24846	58.479110358393	0.041619093442
0	25375	60.078708606893	0.030877204921
0	28416	67.393688015448	0.045849749384
0	28870	68.585975989221	0.02401725236
0	28942	68.810245932969	0.026723266691
0	31384	75.500078291688	0.027627366304
0	31623	75.752128172276	0.03066063883
0	32011	76.804457283832	0.038989708367
0	32279	77.62041466465	0.023415762908
0	32371	77.932654277718	0.025868297505
0	32507	78.53721021872	0.025345022245
0	33328	80.352740997352	0.025312718651
0	33672	81.434413664894	0.023662806846
0	34309	82.793578345457	0.020906445142
0	35490	85.952228712097	0.021026264736
0	38672	94.437875572545	0.036721086125
0	39538	96.685656723335	0.035157329204
0	40727	100.237746824923	0.401017648579
0	42238	103.056064261882	0.028533337268
0	42958	104.797554250437	0.02635963552
0	44015	107.291123280673	0.029993666605
0	44844	109.318247785648	0.021567863171
0	47007	114.45878082401	0.236842556742
0	47317	115.455138457977	0.023670817265
0	47476	116.002026026427	0.031090486466
0	49676	121.596659430683	0.022305059531
0	50348	122.9764189471	0.034579849866
0	50546	123.455688629557	0.03914788162
0	50856	124.278007632262	0.024218169519
0	51776	126.959972904254	0.028426206745
0	52556	129.363012408881	0.02400197189
0	53605	132.153972147926	0.026224041372
0	53740	132.775144781114	0.280619606417
0	53951	133.214248450931	0.253722578667
0	54253	134.039373978888	0.028363383038
0	55498	138.010560742595	0.026809534612
0	55811	138.871692104045	0.224984339468
0	57576	143.809963211372	0.025766628113
0	60608	151.353632573109	0.022453969636
0	63913	159.615307760423	0.023209995352
0	63991	159.79518543456	0.025630421504
0	64568	161.215569188236	0.020716992204
0	65338	162.898987025793	0.028226032421
0	65501	163.123570181538	0.022477778314
0	66605	165.985790154609	0.027107638232
0	67124	167.467768666124	0.022997520856
0	67333	168.18592064736	0.034026968254
0	69446	173.488110622147	0.044549658689
0	71124	177.893131616737	0.236729942319
0	72179	180.206906606996	0.035036553793
0	72838	182.111056964154	0.048694284369
0	74908	186.735157947415	0.021744796197
0	75282	187.827228436161	0.03397786152
0	76584	191.745240518286	0.023063221306
0	76709	191.946383307574	0.0205835576
0	78076	195.413998060751	0.044829241654
0	79139	198.088051946533	0.033818054776
0	80596	201.360871323922	0.023942729087
0	81679	203.829979437982	0.023621129035
0	81775	204.069059968339	0.026673934486
0	81837	204.332239816857	0.043529841641
0	81918	204.525222251371	0.021785146078
0	82042	204.899369000058	0.025132349876
0	82549	206.462076971597	0.522183888015
0	82691	206.85020000961	0.196834787338
0	84829	212.445746024602	0.029219790303
0	87565	220.14373166684	0.036872713569
0	88606	222.492335811225	0.026705634643
0	89543	225.209648503744	0.031776564363
0	89690	225.392307451286	0.023409723144
0	90074	226.572089383575	0.029136099461
0	90181	226.999890177676	0.019453478137
0	90261	227.332212603618	0.024383946873
0	91004	228.805109657418	0.241172444702
0	93972	237.308171681327	0.021392491204
0	95944	242.860127118539	0.750666022551
0	96443	244.606193161659	0.030777219732
0	96528	244.973202381849	0.023668242508
0	98103	248.744063270991	0.0427044335
0	98565	250.098964677029	0.197620619253
0	99142	251.559743151312	0.226273886618
0	102856	261.553014602905	0.018885899766
0	103699	264.042867952808	0.037150797649
0	103745	264.265353690719	0.052961331252
0	105168	268.417551918742	0.224906085961
0	105368	268.756666069643	0.05324777014
0	107138	273.852612395443	0.034092654259
0	108558	277.755024169696	0.038176905287
0	108651	278.06109330587	0.03692534397
0	108961	278.784853329995	0.027605087395
0	109318	280.220657021204	0.025187461272
0	109731	281.164957506746	0.028553823984
0	111811	285.470858758849	0.038642005469
0	111935	285.919536045551	0.023195270472
0	113109	288.380481192199	0.021829510401
0	113956	290.190078730746	0.026885166353
0	114147	290.930295917011	0.04057036357
0	114383	291.763910954292	0.024630724932
0	114522	292.231988857866	0.021898838495
0	115997	295.538653229473	0.028935849878
0	117154	298.751038455372	0.23038594791
0	117709	300.997846402498	0.683742625661
0	117789	301.368224865703	0.204782570731
0	120677	307.130372666049	0.197850710837
0	122137	310.654225420786	0.028159235295
0	122348	311.458830798028	0.025315169651
0	122454	311.665594031227	0.029200094845
0	122926	312.976948459673	0.02306701131
0	123838	315.900510543773	0.274279945861
0	124557	318.081469579977	0.02328092501
0	124848	318.854721452855	0.037671464854
0	125948	320.941726602616	0.021257648855
0	126343	321.915959176274	0.243725072024
0	126500	322.747740946036	0.464002526591
0	127073	324.632399843632	0.039093262861
0	127285	325.207241098919	0.022019427178
0	129059	330.572227203819	0.040366289996
0	130331	333.931308529003	0.034260186945
0	130744	334.739503175455	0.021994802906
0	131900	339.332496835009	0.984595973341
0	132142	339.645911255125	0.03884043249
0	133369	342.776398562453	0.025096152691
0	133523	343.108401993587	0.030233416001
0	133875	344.968686799561	0.703447761393
0	134423	346.298976330421	0.028480589415
0	135073	347.878035543749	0.213869438988
0	138550	356.480897521337	0.034695461169
0	140739	361.772483083353	0.026260231507
0	141735	365.31612539284	0.030291657296
0	142064	366.309082865686	0.025196576061
0	142207	366.700226528727	0.241216209632
0	142794	367.739205365101	0.034118138253
0	143547	370.111159282651	0.027542083177
0	147019	377.492018760176	0.043265345925
0	153021	392.055562048296	0.023929938101
0	153559	393.607255532479	0.061542627721
0	153638	393.956085394935	0.032392516565
0	153924	394.751288962595	0.023755950383
0	155453	398.321068464323	0.021276776381
0	155765	399.058475130988	0.026681266954
0	157803	403.668862391584	0.021507217437
0	159549	407.427583504093	0.024901541756
0	159670	407.685831998164	0.033337549106
0	161557	412.229196492185	0.028162590579
0	164350	418.855531308186	0.022386160793
0	165088	420.800555611176	0.220930276624
0	167785	426.965956272488	0.025618941064
0	167858	427.172996777728	0.033384525029
0	167978	427.432756845465	0.031932852438
0	169412	431.194133173982	0.022784832294
0	169502	431.412582533141	0.021468668315
0	172366	438.518684048732	0.02640688505
0	173668	441.958064321699	0.020949459424
0	174423	443.885049295702	0.028863036138
0	174517	444.190774625222	0.024349514972
0	174700	444.726284969542	0.028988115183
0	174824	445.208993181638	0.223638018526
0	176018	449.24504804815	0.02218232354
0	178088	454.041830212057	0.032551243342
0	182765	464.373957499118	0.033238349175
0	183486	466.28866641271	0.020905127021
0	184258	467.905840144417	0.026938078106
0	184888	470.04362951904	0.039702553997
0	185531	471.862608314837	0.205182826193
0	189215	480.700397828167	0.023492944895
0	189881	482.783946800961	0.026627697426
0	190853	485.617384891243	0.023014093064
0	191165	486.440237670903	0.025046558652
0	192129	489.406620887039	0.044708171828
0	198183	507.005400303985	0.275082095136
0	198786	508.385530068915	0.024493769135
0	199059	508.787380748682	0.030532934931
0	201074	511.947181291916	2.942200924363
0	202163	515.315408246412	0.269258426868
0	204054	519.591399397914	0.024120703991
0	204558	520.654054057804	0.291766695931
0	204784	521.465790968883	0.034355379984
0	205080	522.963427630519	0.02891476471
0	205371	523.726182781333	0.027329370814
0	205460	523.928411009247	0.02036105009
0	207043	527.401273938874	0.022136681001
0	207244	527.921564233874	0.025703931552
0	209055	531.206940734192	0.019809178805
0	209334	532.369713407924	0.258536962311
0	209446	532.670384820271	0.047082634791
0	210653	536.046170455399	0.018450188367
0	210715	536.245083233751	0.028103453321
0	210841	536.949654159621	0.252081057538
0	210918	537.163261094031	0.05232778717
0	213855	544.073332136241	0.218899522594
0	213953	544.294073017099	0.02149686148
0	215276	548.292460683556	0.030393493716
0	216163	550.744604433935	0.028863956753
0	216842	553.39734564193	1.445627397099
0	217554	555.691129298134	0.01753515612
0	218323	558.283716176289	0.021674765596
0	219058	559.804139589481	0.030738881932
0	221467	565.253715015171	0.023725358857
0	222266	567.923555336516	0.256661480768
0	223192	569.828457436266	0.033850207979
0	225594	575.594677448153	0.043627356502
0	226095	576.944658897971	0.027615283281
0	226422	577.510229442137	0.253435221152
0	228565	581.804152057779	0.024180919746
0	228810	582.80640350008	0.03007045208
0	229008	583.069425259413	0.038747931163
0	231383	588.840957549846	0.028882528707
0	233650	594.304287206285	0.041150109669
0	235148	598.258426093698	0.031666781302
0	236974	602.556185798511	0.026683041104
0	238286	605.735801553769	0.027089774302
0	238695	606.605074885183	0.028425770869
0	241560	614.533035462139	0.022618788596
0	242867	618.071753352668	0.022480991849
0	244379	621.833131341309	0.0391161633
0	244747	622.846865980102	0.028907481964
0	245076	623.977940818796	0.243640435542
0	247336	629.351272747769	0.024749671157
0	249534	634.950694935348	0.027681145784
0	250643	637.914554103059	0.02462266305
0	252494	642.690371660249	0.270541129765
0	252979	643.897920076755	0.04143939992
0	254975	649.030256654132	0.501963056997
0	257187	654.477889379374	0.050686348393
0	258061	656.707903765937	0.02715743844
0	259826	661.223773879147	1.00123583135
0	260121	661.874894040946	0.0368472909
0	260598	662.957198433354	0.02684234334
0	262405	667.921373193763	0.233099311661
0	263332	669.992183924874	0.026525328345
0	263809	670.933835686376	0.031932239692
0	266579	678.923641296928	0.031657295604
0	268207	682.720284727742	0.024398466266
0	268835	684.423743581664	0.031502323845
0	268993	684.75525629367	0.024806175517
0	269452	685.968768467339	0.024567472574
0	269869	687.000848443491	0.038740426772
0	270113	687.607964654008	0.020941636716
0	270419	688.400787825142	0.024247083
0	272557	693.305784052814	0.020385170543
0	272707	693.518214709854	0.024040572065
0	274296	698.208395252341	0.030776426645
0	275851	702.905773353673	0.028926193691
0	276865	705.913442147551	0.030589115258
0	277063	706.240507952878	0.033886960876
0	278023	709.69357151914	0.021253252801
0	278681	711.561387104021	0.025599080501
0	279328	713.43339260556	0.040775670023
0	279716	714.588067775243	0.029807781081
0	280930	716.95842572826	0.042855164905
0	281476	718.682188544725	0.033714248475
0	281549	718.989586846511	0.025128045488
0	282002	720.292804342445	0.020501914605
0	283682	724.781572262364	0.020249867906
0	283862	725.441905682912	0.391724857181
0	284291	726.53432103519	0.215497334639
0	287331	733.809230276966	0.271412966337
0	288128	735.332999407469	0.02340436204
0	289732	739.073454589038	0.028600362246
0	290111	740.359707388064	0.024991949989
0	290256	740.891417924734	0.034775914915
0	292341	745.381672182836	0.024902304971
0	297035	756.204281253418	0.023163841849
0	299140	760.783535139805	0.028033136474
0	299526	762.269397994727	0.398826806462
0	299629	762.533758884844	0.018982351298
0	299837	763.087656232253	0.033907415614
0	299998	763.765455969387	0.228132178668
0	301466	767.96023037436	0.031655179985
0	303882	774.38498476932	0.023548470584
0	304407	775.882692763118	0.220496230008
0	304576	776.125238224032	0.032129670253
0	304766	776.771567644052	0.022300814089
0	304946	777.224289437312	0.029023291603
0	305375	778.374468529615	0.021051080985
0	305850	779.747989735983	0.023628451361
0	306441	781.384505891898	0.238416966677
0	306515	781.582944749461	0.032982536829
0	306584	781.930115150333	0.052066808902
0	307323	783.877067649283	0.019646793081
0	307528	784.165687759497	0.050266812827
0	310176	790.371816528298	0.209897232178
0	310366	790.696450071103	0.032005866604
0	313487	798.015347150492	0.037094491712
0	313581	798.344772649638	0.028971761179
0	315388	802.723196926496	0.049813898116
0	315664	803.963542451932	0.038965747676
0	315786	804.383373156205	0.038060233424
0	317029	807.256387093784	0.021127183605
0	317604	808.666341624152	0.028616908692
0	320110	815.610153594201	0.029365255526
0	322504	821.030096573395	0.039700352628
0	324063	825.297610528778	0.021257442371
0	325264	828.416815768032	0.02535522344
0	326339	831.793258875301	0.020675920871
0	326465	832.207882874715	0.022055933876
0	327205	833.842669167432	0.027247435938
0	327381	834.156753764003	0.025429358271
0	327437	834.412441008925	0.025201654597
0	327531	834.742492314148	0.027796046618
0	327694	834.976126280237	0.024406509513
0	328542	836.430856978528	0.041449411219
0	328716	837.019587647875	0.025926175708
0	329235	838.828289944348	0.028062199078
0	330709	842.754606767676	0.316263403535
0	331603	845.85483441469	0.527639941737
0	332737	848.378088730881	0.028688018806
0	333622	850.520138183097	0.021747859532
0	335656	855.024077786688	0.030349520851
0	335741	855.458270251032	0.215771896997
0	335819	855.704965088339	0.022477064353
0	337142	858.090823926289	0.0182892904
0	337414	858.773360643053	0.027270518161
0	338413	861.447098125514	0.025214442885
0	343598	876.035090967735	0.037239164085
0	344020	876.963142088955	0.021704952187
0	344689	879.33316451897	0.422308235694
0	344804	879.689965515872	0.04845264884
0	346209	883.849622585442	0.268089421408
0	346593	884.766812222141	0.225233953402
0	347729	887.507561584013	0.022613407391
0	347799	887.70940983877	0.017868794392
0	348679	889.851226859751	0.028618281234
0	349346	892.006935290273	0.031187252431
0	349985	894.011980908304	0.0202676809
0	350981	896.968191679841	0.02368576084
0	351602	898.735635930858	0.193544061161
0	354138	905.350902052584	0.018913792997
0	356050	909.682107408164	0.030127154314
0	356139	909.956546256547	0.037708053825
0	356822	912.102007744843	0.028666851021
0	357230	913.012144858375	0.030123239971
0	360520	921.356858908065	0.024521820783
0	360603	921.572092756827	0.024107280297
0	362144	925.515980103304	0.023354830643
0	363149	927.820664457416	0.207934330384
0	363608	929.252762842425	0.021096868637
0	364141	931.245059873959	0.05378034379
0	365199	933.914926170125	0.028268631183
0	365333	934.401941534579	0.027402745419
0	365463	934.657543192186	0.034760674301
0	365885	936.17953362261	0.192644516706
0	366299	937.35853454406	0.024336096443
0	366804	938.543442734171	0.02618056216
0	367903	941.03167261319	0.026536111885
0	368034	941.223878743592	0.023236607546
0	369977	946.757054449862	0.030807152061
0	372633	953.491154047043	0.305173184955
0	376118	961.188824265933	0.027257954651
0	376310	961.448422273978	0.02825016895
0	377195	963.85613461717	0.021144851084
0	378333	966.118879120567	0.029874157968
0	378576	966.741048530739	0.020211948166
0	379302	969.498743127172	0.676342830097
0	381587	976.794503738767	0.240467786168
0	381920	977.989601545706	0.028302083353
0	382171	978.637802884535	0.0289295972
0	382354	978.949077080055	0.027099031571
0	385077	985.45938313648	0.052302199995
0	386244	988.804532926521	0.023155627905
0	387773	993.094805078646	0.022312972232
0	389781	998.838681481815	0.028180987725
0	392050	1004.207504686493	0.025983027264
0	393312	1007.53027468857	0.199697413612
0	394467	1010.162318862764	0.024045927083
0	395560	1012.76912473144	0.034893840161
0	395866	1013.606341750333	0.039806840124
0	396511	1016.073053336415	0.029809244853
0	399207	1023.440262837459	0.024004990115
0	399401	1023.737113260516	0.036575016145
0	399503	1024.035475667127	0.023793496255
0	399774	1024.298238423678	0.034079642635
0	400226	1025.179191627989	0.033180899821
0	400320	1025.526651672902	0.049182871509
0	401521	1028.576816726782	0.029037875674
0	404468	1035.308133145329	0.025653706521
0	405384	1037.341863271562	0.027888452485
0	408390	1043.944427045381	0.045448693138
0	408494	1044.27151898087	0.025312004623
0	408765	1044.971680011127	0.023886965885
0	409430	1046.132471786679	0.027312905277
0	414293	1057.928017437285	0.237286813143
0	414579	1058.811868216735	0.030563709806
0	416023	1062.260488096714	0.022875236952
0	416205	1062.87775918681	0.023740492302
0	419300	1069.835852502048	0.027470089504
0	422092	1077.944681163547	0.031125752093
0	422621	1079.720145225565	0.02247686695
0	423324	1081.322527354775	0.026824437062
0	424450	1083.745486747829	0.031519217924
0	424774	1084.655470174148	0.025661781667
0	427170	1090.027801770033	0.054450956263
0	427363	1090.857123979311	0.036155628716
0	430667	1098.882640442435	0.026791196678
0	430886	1099.864904311708	0.19915125164
0	432899	1104.888747995868	0.027375501899
0	434809	1110.938732345238	0.240541457595
0	438271	1121.681496114837	0.26982046322
0	438445	1122.139109238366	0.051357994014
0	438867	1123.120694564562	0.025064226821
0	439119	1123.692125901552	0.029856751895
0	439940	1125.830547137999	0.027605632725
0	440049	1126.06580606733	0.024452020562
0	440178	1126.429156329147	0.022495439869
0	441148	1128.33897727506	0.031023642337
0	441596	1129.407541062814	0.036347763389
0	441683	1129.632032650176	0.027622504299
0	441930	1130.348443409904	0.032899966629
0	445235	1138.489554651256	0.035043443155
0	445585	1139.198398318397	0.036098321967
0	445706	1139.653575253895	0.022424419408
0	446958	1143.07177149963	0.033710211846
0	448797	1147.678611738287	0.332672491902
0	449097	1148.563020125948	0.020863757194
0	453373	1159.679067897633	0.02637411273
0	455026	1164.653724580519	0.024669392071
0	455527	1166.146551740662	0.016955509532
0	455806	1167.256308323148	0.032783971227
0	455948	1167.592530752546	0.039114704901
0	456972	1169.325093969737	0.197159774821
0	457295	1169.595384368918	0.03051725704
0	457882	1171.278770825674	0.033603247057
0	459131	1174.204644086588	0.026918484653
0	459290	1174.459617451636	0.0194892297
0	461041	1178.599520667944	0.026380023571
0	461354	1179.295125329187	0.019894127908
0	462847	1182.49530031396	0.027422020597
0	463285	1183.49982549299	0.020676254091
0	465226	1187.885172951781	0.037181241778
0	466238	1190.538079322043	0.018654583638
0	468726	1197.132255618518	0.040834537812
0	469100	1198.169031359719	0.029552874375
0	469211	1198.507835675003	0.024231993379
0	469319	1198.955038464965	0.034959676711
0	469642	1200.358585991216	0.035398952761
0	470486	1202.596587817672	0.025806182397
0	474777	1211.657663245826	0.033678429843
0	477611	1218.232166172764	0.023536739247
0	478034	1219.849698845414	0.035807524394
0	478577	1221.21117396041	0.229155311193
0	479271	1222.499086309893	0.026304020208
0	479716	1224.188640965021	0.027031259097
0	480198	1225.48526007235	0.034953228937
0	480533	1226.50942204765	0.191902647624
0	482092	1230.559986805179	0.074162061636
0	483010	1233.382206441573	0.027371294419
0	483185	1233.829543330514	0.028103572505
0	484511	1236.685769322596	0.023220336123
0	485633	1239.613468147686	0.034078704167
0	485948	1240.881708017422	0.798289474033
0	486624	1243.555956132348	0.025398748053
0	488304	1247.226400875582	0.037372285661
0	490468	1252.468310615355	0.02683743814
0	490716	1252.877073468435	0.031133249434
0	492720	1257.907111076647	0.031472045812
0	492906	1258.592483387567	0.0323134559
0	493359	1260.2143235071	0.032955211994
0	493650	1261.466183198771	0.025683049557
0	493795	1262.194643654728	0.192199822184
0	494018	1262.869003935593	0.022952310886
0	494151	1263.187961954308	0.023222910762
0	494391	1263.769885155521	0.025413055115
0	495561	1267.36457265198	0.028136546192
0	495983	1268.478586439731	0.026912766524
0	496174	1269.215068588184	0.03384082437
0	497994	1273.781036630176	0.033598377272
0	498122	1274.059092487244	0.03817044418
0	499193	1276.942914047884	0.034798397536
0	499665	1278.514591237501	0.038145189724
0	501108	1282.022969396348	0.034958482223
0	501586	1283.101903209616	0.026286066421
0	502924	1287.054596734201	0.225510621405
0	503148	1287.741665419982	0.029454252427
0	503243	1288.031602358808	0.03261159225
0	503779	1289.477948108308	0.266066926005
0	504198	1290.659676144744	0.434941842304
0	505812	1295.506161536773	0.226145923507
0	505869	1295.760883067565	0.023522697761
0	507256	1299.174113123209	0.030444932301
0	507513	1299.462229245965	0.030979493567
0	507822	1300.418851922548	0.025053655333
0	510222	1306.156081096155	0.02431284626
0	511767	1311.104651497837	0.025546809202
0	511919	1311.486634312141	0.028236522188
0	511983	1311.70882773343	0.01975653537
0	513690	1315.888182491251	0.043067420769
0	515158	1319.458018069202	0.016676223864
0	516484	1323.074527293904	0.022656272181
0	516840	1324.03832078017	0.020663858598
0	517685	1326.553780697593	0.034289707093
0	519718	1331.857641699069	0.020200280345
0	521524	1336.150880239501	0.023502174349
0	521733	1336.656846832764	0.041732692779
0	522366	1338.358692231634	0.039620249752
0	522695	1339.187773831849	0.032998394897
0	523749	1342.601074305559	0.2001322863
0	523851	1342.789520043015	0.023326085021
0	524744	1345.225143199562	0.028049743061
0	527214	1351.290074476833	0.311603714659
0	528814	1355.094908307526	0.025515989953
0	529135	1355.748992224423	0.023489401295
0	531637	1361.425871054461	0.019674667997
0	532527	1362.931819498897	0.035089992924
0	532608	1363.147028289111	0.023983676952
0	534413	1366.837865588067	0.029522302318
0	534772	1367.996616110901	0.026105153654
0	536602	1372.584466928483	0.024334058332
0	537439	1374.363273996281	0.026803287472
0	538493	1377.095674513471	0.023262549893
0	538619	1377.669403921045	0.229066267132
0	539540	1379.913649569269	0.020703611942
0	539679	1380.453447992881	0.239152745407
0	541275	1385.630553278788	0.03077475629
0	541634	1387.101885600925	0.054621068138
0	542111	1388.380427093668	0.024475263973
0	542446	1389.400150650846	0.210042996988
0	543565	1392.417928520715	0.029538321049
0	545265	1397.442511861567	0.030919578569
0	547907	1404.739408029393	0.033364240369
0	547956	1404.930920671326	0.027541874569
0	548119	1405.46711173872	0.024878412308
0	548751	1407.463584339433	0.216344831346
0	549578	1410.031470684346	0.02751076009
0	550790	1412.790035622115	0.025150731999
0	553072	1418.121844598824	0.026099601644
0	554790	1421.997859396787	0.022561235477
0	556100	1425.548301027425	0.017219470491
0	556437	1426.297177721671	0.032728306073
0	556634	1427.01405675394	0.018954473581
0	557715	1429.793693816951	0.244311764304
0	557961	1430.585971522505	0.219323097638
0	558211	1431.353189537334	0.235837169372
0	559261	1434.037837599673	0.486878216887
0	560138	1436.182705978215	0.029157978167
0	560600	1437.409058808942	0.030334313061
0	560773	1437.918961763985	0.027080849495
0	560852	1438.162931412991	0.041525178065
0	561021	1438.418949651939	0.019088202703
0	564391	1446.385112216836	0.035801787094
0	564498	1446.581516472449	0.023652291217
0	564582	1447.03276050158	0.024788837827
0	564754	1447.695153465949	0.054941871748
0	564822	1447.96668467656	0.04314143247
0	565587	1450.088356685054	0.02885872235
0	565847	1450.826494427191	0.021189738336
0	567739	1456.456975028492	0.023613543115
0	567885	1456.800807597064	0.023849698993
0	568035	1457.012216261905	0.020416226263
0	569750	1461.679160576151	0.197798357574
0	571360	1466.465287052562	0.211349918433
0	571661	1467.038562031175	0.03209121692
0	573699	1472.612516143523	0.032611490691
0	573971	1473.115537918533	0.032279163271
0	574466	1474.523407193276	0.027314817532
0	576864	1480.536314324609	0.021208916855
0	578161	1483.468620976128	0.028365173582
0	579137	1485.678358261409	0.023804920992
0	580508	1489.414185108785	0.031109454417
0	582088	1492.748664413654	0.277324451076
0	585572	1501.336443844945	0.036309686189
0	589683	1509.739371295127	0.052320226903
0	593977	1521.008661325835	0.030817790086
0	594263	1521.632488583824	0.024317950284
0	597028	1528.186532783962	0.0256165268
0	603634	1544.321019785497	0.256183734875
0	608478	1556.020520295068	0.021801827022
0	608661	1556.521024885669	0.020830371024
0	608949	1557.112338352277	0.031328754676
0	609289	1557.765864995219	0.031901417588
0	610780	1563.161793114264	0.019704319598
0	612442	1567.087966543277	0.198275624068
0	613880	1570.472178029208	0.297899056531
0	614122	1571.620905134043	0.419319644278
0	615191	1574.199346876979	0.274123149851
0	615594	1575.008599162228	0.20365378097
0	616683	1577.538114521975	0.022474184893
0	616862	1578.027773855611	0.240108587649
0	616946	1578.231473570302	0.04238765076
0	618035	1580.684391075189	0.051870929045
0	619545	1584.292320651519	0.031366619886
0	620003	1585.599784252358	0.031317608153
0	620407	1586.994758835513	0.023013042714
0	621359	1589.204303365469	0.020192985414
0	621670	1590.092819826942	0.030474175696
0	623481	1594.268149575029	0.043806754591
0	623665	1595.008953569372	0.03409595283
0	625629	1599.371422214133	0.03281504383
0	626256	1601.125843688493	0.027457720485
0	628123	1606.544138767516	0.027006126613
0	629334	1609.712401193679	0.033547409847
0	629449	1610.084027022355	0.025294432432
0	629573	1610.357109499912	0.028799906863
0	630342	1612.07578675959	0.035742117105
0	630486	1612.268730052974	0.030844985336
0	631272	1614.002931658388	0.036004744024
0	633048	1617.698627563457	0.513182855975
0	634285	1620.640891181998	0.033139554425
0	635575	1623.619916759865	0.029066582751
0	639231	1631.44009003868	0.030748921501
0	639752	1633.720714443838	0.041901568114
0	639871	1634.056137726266	0.038137680744
0	640160	1634.897065836873	0.029158769187
0	641602	1639.033000279479	0.021987089228
0	641657	1639.257313420254	0.022040347815
0	642620	1641.530975277128	0.02360619491
0	642676	1641.77054052486	0.032377892058
0	643036	1642.970599220486	0.020433420997
0	643115	1643.160564913394	0.026017535258
0	645464	1648.823007938379	0.037689930179
0	645809	1649.771627065397	0.020911494032
0	646447	1651.246050353003	0.035646145099
0	647371	1653.970072425936	0.529980642033
0	649011	1657.413185221457	0.037088212865
0	653207	1668.353463965713	0.027515691658
0	654598	1671.502896044294	0.222105643141
0	654680	1671.739699603966	0.029048803967
0	657574	1678.712925639638	0.037950327712
0	662036	1688.283753944016	0.022906088401
0	666162	1699.090104533633	0.017587922774
0	666302	1699.468048856847	0.20218282704
0	667580	1702.509796450864	0.023430040457
0	675525	1721.770679892367	0.0444064991
0	677679	1727.265695978423	0.022805312815
0	679667	1732.900257724969	0.020334135296
0	680035	1733.645046387381	0.034121483064
0	680314	1734.534055563432	0.028220573757
0	682821	1741.508840669397	0.995811618888
0	683045	1741.722693688946	0.036883600602
0	684224	1744.262252374367	0.200973006478
0	685488	1747.981983720268	0.019103521676
0	689106	1757.57606168794	0.029939015839
0	689946	1759.398239625993	0.027987131877
0	690189	1760.043937223829	0.035873362605
0	690443	1761.004369796698	0.029074364602
0	691522	1763.488059802284	0.032404493306
0	692597	1766.812699235811	0.027373861793
0	693871	1770.167581176806	0.260296477073
0	695198	1773.888529280401	0.024330084825
0	696573	1777.868868890647	0.027264703005
0	698062	1782.214607931368	0.024553484771
0	698187	1782.648348730234	0.027503767349
0	698288	1783.055508108517	0.020671081624
0	698790	1784.460067775582	0.024430424107
0	700482	1789.071054871144	0.037549264093
0	703520	1795.879041477881	0.035172829604
0	704162	1797.047634548339	0.036801638719
0	704419	1797.546533422454	0.05203739112
0	706535	1803.349368989721	0.037450100124
0	706632	1803.812273121504	0.024738439385
0	706864	1805.028123418388	0.245896106493
0	707760	1807.963606161708	0.018953237014
0	707917	1808.394278896128	0.032139434289
0	708319	1809.2068320191	0.027862605517
0	711257	1816.349227542502	0.228591477343
0	711425	1816.622928924446	0.019990720651
0	711778	1817.931846154378	0.027782901041
0	712259	1819.971252036025	0.03678644299
0	715211	1829.121292762808	0.029610180388
0	716603	1832.345975728886	0.027244852512
0	717551	1834.92997415224	0.039357865373
0	719519	1841.491879176335	0.023382565588
0	723491	1851.719254531087	0.036485208204
0	725639	1857.14233704284	0.021258779628
0	727712	1862.025642726705	0.02599187704
0	729557	1866.536739109029	0.042179090237
0	730310	1868.972674512127	0.037126001486
0	730647	1869.982498738786	0.030755550851
0	730724	1870.199227092453	0.03831193162
0	731294	1871.732047527921	0.451574577046
0	732150	1875.084787335122	0.237508278929
0	732273	1875.574185052525	0.036351092147
0	733231	1878.236716888646	0.037356619968
0	739767	1892.28139726837	0.024251269862
0	741371	1896.671004461296	0.029596264203
0	741418	1896.89821281787	0.056550275085
0	741896	1898.104015352014	0.046857885342
0	747916	1912.522659042142	0.195522666201
0	748863	1914.902849526655	0.211292420322
0	750998	1920.852213212995	0.033837616551
0	751673	1922.521529413686	0.017888366444
0	753806	1928.268912765009	0.025889793734
0	754490	1930.16268853038	0.023737474009
0	755151	1931.759973069287	0.279616673562
0	755783	1933.520200042148	0.026878413717
0	756369	1935.360716154275	0.225249146958
0	757545	1938.280470762469	0.02568168372
0	758607	1940.727943007377	0.026160276366
0	759827	1943.659433217428	0.041749722963
0	759886	1943.903308549375	0.024779218497
0	760905	1946.829027204996	0.024998969009
0	761102	1947.388834281704	0.023010319815
0	762172	1949.675247309871	0.024978835497
0	762863	1951.627544484874	0.283468935398
0	763430	1953.104319052004	0.025599055656
0	768523	1964.931302848516	0.286343948512
0	768691	1965.262417148268	0.027520114936
0	769881	1968.563694617285	0.019898415228
0	770000	1968.876829344057	0.019584046908
0	770171	1969.323779448897	0.032801570188
0	772024	1973.711814902456	0.030814906083
0	773237	1977.683196554829	0.027685439207
0	773361	1978.38349444109	0.2484232429
0	776557	1985.91281359126	0.471116618371
0	777224	1987.613138874045	0.02290563478
0	777583	1988.339348663915	0.020164518896
0	778878	1992.221227087211	0.272238137775
0	780140	1995.579170677713	0.035618327251
0	780761	1997.107112726186	0.024249505603
0	780901	1997.447826696227	0.036408319491
0	781485	1999.206772160936	0.034246558586
0	781843	2000.489371557895	0.020501399304
0	784680	2008.043199212192	0.029091383053
0	784844	2008.32753851776	0.025253731945
0	785272	2009.154454953955	0.024649990889
0	785480	2009.719984856955	0.019876620723
0	786430	2012.479956088599	0.019074559955
0	786718	2013.4699000905	0.502903118737
0	787237	2014.661610354431	0.023405512802
0	788202	2016.853467120055	0.023658025356
0	788784	2018.523263659045	0.01939144203
0	789285	2019.562911664255	0.039600235193
0	792142	2025.870095770515	0.030334839353
0	792331	2026.182999886481	0.02978653095
0	792482	2026.936911209359	0.026422137413
0	793856	2030.798141143233	0.017270629777
0	794390	2032.284693219111	0.022696564464
0	796162	2037.825064328063	0.035647634509
0	797411	2041.461854904817	0.023290207535
0	797664	2042.001827968144	0.026744180025
0	798432	2043.936511678721	0.02711141953
0	800645	2049.285501792333	0.02059699161
0	801600	2052.378294087178	0.813996161506
0	802370	2054.123079470127	0.039693626502
0	802852	2055.647656265071	0.208829214565
0	802963	2055.956835956144	0.03025214787
0	805150	2061.600498227219	0.032774319744
0	805590	2063.290564478123	0.033823698399
0	806006	2064.574044197588	0.025256106025
0	806185	2064.880124443825	0.039828721992
0	808324	2070.243232393818	0.054382237759
0	809359	2072.663177950476	0.023403349361
0	812503	2080.12418347099	0.020694682247
0	812654	2080.604636273958	0.020302898624
0	813609	2083.945914358591	0.021864423309
0	816961	2094.212960962724	1.213837976941
0	818793	2098.283712250383	0.029920365371
0	822393	2108.168651560052	0.040931750737
0	826616	2117.562714744958	0.042631505521
0	828078	2121.125469940557	0.018118984746
0	828912	2123.645896098079	0.021909503111
0	833427	2134.272709793161	0.026286290532
0	833591	2134.595513754053	0.045062535965
0	834877	2137.011530102463	0.041404878135
0	835476	2138.93381000602	0.026786331429
0	836136	2141.066991190213	0.035858426109
0	836205	2141.307372942895	0.021317441905
0	836588	2142.856575099596	0.762464756829
0	838392	2147.46458722693	0.267978511471
0	839633	2150.614330032144	0.024965462157
0	840055	2151.716961997108	0.036646919303
0	840107	2151.918444248738	0.033286187203
0	840767	2153.622877839381	0.02126541126
0	841126	2154.62490050016	0.022562776975
0	844472	2163.014895106609	0.028494432566
0	844702	2164.044712556519	0.022954621298
0	845021	2165.053806772309	0.022913047859
0	845290	2165.758398244201	0.021726127256
0	849871	2178.094864543244	0.024449458274
0	851128	2180.996596476745	0.028349188722
0	851406	2181.983382575951	0.021118283334
0	852472	2184.569476632178	0.023024770698
0	852559	2184.925297058899	0.032497583998
0	855439	2192.983948373592	0.01987012398
0	856468	2196.097307173836	0.214736458191
0	857150	2197.722358801946	0.027324253298
0	858248	2201.030944014264	0.190975215311
0	858476	2201.300122486984	0.03011945862
0	858810	2202.007711579893	0.022479796513
0	859142	2202.835784455377	0.023674087149
0	859397	2203.534464299652	0.039337646166
0	860052	2205.285434438921	0.024029673879
0	861302	2207.890806410698	0.021794633084
0	862559	2210.803519201484	0.262189318303
0	863258	2212.73034289846	0.027597024236
0	863641	2213.637488153299	0.033150600441
0	863711	2213.860694443725	0.02002388901
0	864252	2215.942298857702	0.294555382887
0	864346	2216.175556655273	0.01996731123
0	864611	2216.990142216031	0.035626109352
0	865533	2219.953540102833	0.309480188025
0	865709	2220.625374826929	0.029350978991
0	865978	2221.733841657407	0.027127502579
0	866048	2221.953311264089	0.027891421301
0	866427	2222.7803942601	0.028736932346
0	867306	2224.892712963157	0.018752380408
0	867766	2226.153907052121	0.021585576177
0	867846	2226.475184034327	0.040837674151
0	867986	2227.112821064136	0.020014044549
0	868122	2227.809991471503	0.484240170143
0	868278	2228.254286923819	0.022943944807
0	868903	2230.163306678459	0.043320980456
0	874625	2245.233047624546	0.20969905961
0	875314	2246.975459898599	0.02001061163
0	875460	2247.46930811188	0.02681361523
0	878866	2255.982341648377	0.045662401795
0	882012	2264.477085379715	0.031040352092
0	882282	2265.261282889875	0.045098567896
0	882406	2265.961088797741	0.272975027836
0	883942	2269.578203393609	0.255029335938
0	884767	2271.62299266365	0.226256574428
0	886822	2276.464834049411	0.024661570794
0	887943	2279.366479746265	0.238841479938
0	888151	2279.810144268965	0.024869127515
0	890272	2283.758969108879	0.030821769872
0	892828	2289.569379673159	0.234978612392
0	894000	2292.589814364278	0.021353886359
0	894338	2293.879499645621	0.036077572527
0	895817	2296.975859864091	0.082897329147
0	896402	2298.561498039216	0.04643898741
0	898981	2304.828028997561	0.024305384004
0	900226	2307.635861449851	0.452256753302
0	903901	2316.479543596259	0.029087400989
0	907026	2324.394393269864	0.031522219015
0	907177	2324.646939681915	0.02469279169
0	908758	2328.892331022683	0.020330022112
0	908852	2329.222507813944	0.035752226651
0	911407	2334.872752880236	0.023902439989
0	912381	2338.143025203698	0.027750061042
0	912685	2338.996994809977	0.025095218577
0	914173	2342.930485667325	0.023141218018
0	915837	2346.670571113272	0.528663304419
0	916809	2349.081553231545	0.021896208216
0	916940	2349.431947640316	0.040056117635
0	919466	2356.420381617474	0.028972250259
0	919697	2357.254788598169	0.027661814823
0	920663	2359.999353486796	0.025327963467
0	922970	2366.235667248627	0.023776042472
0	923457	2367.500797585426	0.024212812602
0	924009	2369.097577052577	0.03718999374
0	924704	2370.762810062478	0.070130850221
0	927554	2377.304017573826	0.294720100881
0	928065	2378.634849253291	0.025135532323
0	928658	2381.456633184909	0.571370653613
0	930278	2385.239836617715	0.026948994893
0	933516	2393.46699184869	0.021330943753
0	934517	2395.88433852523	0.039960466105
0	937577	2403.716174702938	0.021985026058
0	937682	2404.023779353838	0.020455963524
0	937936	2404.627333778148	0.025009991049
0	938823	2406.529988690957	0.026094455913
0	939035	2407.190658966222	0.026717863642
0	939101	2407.412628064707	0.022739620872
0	941170	2412.336820829903	0.031154501264
0	942884	2415.869927326453	0.043004463576
0	943443	2417.174991961675	0.026811124473
0	943588	2417.501167309013	0.035458720525
0	944760	2420.469999773903	0.028864027936
0	945609	2422.853382110803	0.280740486177
0	945849	2423.16482739116	0.024716343723
0	947184	2425.837899182393	0.026606274292
0	948129	2429.339926575033	0.02862926237
0	948789	2431.243328559688	0.204459969239
0	949685	2433.991611704084	0.390894699732
0	951342	2437.89549205594	0.038761120718
0	952255	2440.86666427115	0.026633912005
0	954858	2447.349723905526	0.029133538726
0	956292	2451.408423706066	0.021098163304
0	957082	2453.456394610794	0.029881558083
0	957372	2454.515416654509	0.039735037094
0	957638	2455.243213213654	0.182484900164
0	959849	2459.597736475309	0.024812832841
0	960118	2460.302312326835	0.026505448017
0	962146	2465.682664432263	0.03654215653
0	966433	2475.818991957777	0.022025542939
0	968539	2481.981990919597	0.023092863405
0	968679	2482.33633596052	0.035140088245
0	968762	2482.702159068549	0.048663360658
0	970995	2488.370342514094	0.022662629146
0	972424	2492.591459556954	0.035844567587
0	974189	2498.199535811725	0.444424389762
0	974464	2499.699151207405	0.433756812149
0	974568	2499.935689677289	0.033365058751
0	975506	2502.50361055463	0.023433858108
0	976840	2505.421956660428	0.019903202537
0	976929	2505.63756475385	0.023617626752
0	977446	2506.891175462772	0.022159343633
0	977561	2507.1854873414	0.029079977261
0	978148	2508.729472789677	0.029844662639
0	978740	2510.351840893969	0.021567493867
0	979664	2511.961943342089	0.226751773899
0	981909	2519.087563842046	0.033192640327
0	982708	2521.128817955367	0.030078327902
0	983117	2522.271961328026	0.158403447267
0	983276	2522.578006976672	0.049350779791
0	983768	2523.565831421949	0.01995526075
0	985073	2527.082283148372	0.247509645698
0	985563	2528.371585518095	0.021229903671
0	988706	2534.90630628926	0.019546219191
0	989019	2535.68361342715	0.032170699365
0	989127	2536.012962083315	0.025676758037
0	989958	2538.092747191885	0.213008105896
0	990892	2541.020670871607	0.66047136371
0	991292	2541.859104049373	0.023837127049
0	992668	2545.680996020576	0.030649552186
0	993082	2546.421472675336	0.028572165786
0	993159	2546.619202012849	0.026614989385
0	993248	2546.852075654285	0.025761758545
0	995860	2551.883524519719	0.028926969215
0	997133	2556.165807423998	0.030490781027
0	997285	2556.936649867444	0.025457853244
0	998403	2559.701742283151	0.032681573264
0	999658	2563.351360409462	0.025968755937
0	999807	2563.855258185836	0.040750569445
0	999991	2564.77508736374	0.032174578672
0	1000160	2565.454477163011	0.02474958097
0	1000951	2567.926886974774	0.01711187658
0	1001784	2570.359492641289	0.288563289561
0	1003372	2574.270631628347	0.027876194256
0	1004934	2577.106581389568	0.028056550815
0	1006120	2580.1340888285	0.030949997503
0	1006366	2580.792966846546	0.230455129054
0	1008613	2587.276998312528	0.028174998782
0	1009958	2590.697099233584	0.028984213844
0	1010075	2590.882252953044	0.028791152592
0	1010806	2593.003971702115	0.025184478532
0	1011871	2595.454888508405	0.020281182991
0	1011930	2595.697612823331	0.023672128483
0	1012058	2596.267445410215	0.210049399762
0	1012774	2597.916760904256	0.02454291427
0	1012856	2598.113670700682	0.021583938253
0	1013714	2600.008236886813	0.214898362617
0	1014204	2601.420059667311	0.025366090563
0	1014613	2602.48358779827	0.24771093174
0	1014971	2603.829798587984	0.041603490516
0	1015374	2605.181568492212	0.253824544984
0	1015680	2605.82561862877	0.030127359056
0	1016026	2606.961474131582	0.251382703427
0	1016810	2609.125458590954	0.025302222126
0	1018058	2612.028242728307	0.042612116427
0	1018138	2612.231138703351	0.035696146259
0	1018395	2612.886976171932	0.195436944654
0	1018511	2613.29494282134	0.220682336791
0	1019904	2616.253693886716	0.023530335067
0	1020026	2616.697216732731	0.019844277887
0	1020137	2616.9451533044	0.029610812982
0	1020864	2619.442081124078	0.592501956543
0	1023029	2624.165944373507	0.021806751601
0	1023318	2625.302589336423	0.045451719644
0	1023579	2626.02107932865	0.028674885822
0	1025509	2630.777842203901	0.021630355646
0	1025812	2631.549825959359	0.024922217042
0	1026142	2632.763627589444	0.039852747579
0	1027193	2635.55416352623	0.032820325938
0	1030458	2644.111117832807	0.020981334622
0	1030829	2645.110444632262	0.019850049466
0	1035487	2656.958513283966	0.022836238983
0	1035823	2658.005187030847	0.223699250624
0	1036012	2658.203245420351	0.032926879244
0	1037388	2662.027960168019	0.242096802472
0	1038063	2663.801937566157	0.026910881589
0	1038665	2665.239696701526	0.021605597059
0	1038916	2665.976445018881	0.039341283256
0	1040342	2670.019362527219	0.222528090993
0	1041300	2672.890893536904	0.030751427184
0	1041684	2674.012205457084	0.020446071304
0	1042130	2675.438690738854	0.01993572353
0	1044798	2682.624225446237	0.236710633271
0	1046012	2686.327197389587	1.267950489119
0	1050735	2698.743362096546	0.038359173749
0	1051701	2700.490545562282	0.029847096686
0	1052635	2702.457783855128	0.028797536804
0	1052709	2702.815200382031	0.044517085456
0	1052814	2703.069368141722	0.033602058458
0	1053107	2703.811267947623	0.016605416824
0	1053570	2705.471660453637	0.025519334715
0	1054258	2708.117225198739	0.037907336334
0	1056392	2713.002154386608	0.045355395308
0	1056826	2714.263255368021	0.020602851677
0	1058348	2718.687288418071	0.02647970736
0	1059084	2720.917159553795	0.257502168659
0	1060169	2724.235400342876	0.265242646649
0	1061727	2728.560148710996	0.036087161801
0	1063710	2734.373637370903	0.024001199947
0	1064786	2737.404757803485	0.328922121537
0	1066028	2740.354881928743	0.030990650723
0	1066114	2740.660304829	0.044163396174
0	1066556	2742.3002266145	0.284366897484
0	1067330	2744.363167953277	0.199736092268
0	1067521	2744.71012017718	0.024042046583
0	1067749	2745.158232655495	0.022621810897
0	1067888	2745.404971811286	0.032922472695
0	1068537	2746.747618867869	0.019837481009
0	1069059	2748.327597502402	0.036878844854
0	1069207	2748.741621100549	0.019570186399
0	1074403	2761.476087461125	0.02798517435
0	1074906	2763.458532419065	0.249919023791
0	1077352	2769.89949480909	0.052341879399
0	1078485	2773.039625184792	0.01852096148
0	1079027	2774.328777144448	0.223421522745
0	1079225	2774.617979914862	0.025587047735
0	1079654	2775.627692410734	0.026920995879
0	1079797	2776.111996971559	0.265070421795
0	1080023	2776.376089289374	0.024682848114
0	1080813	2778.43954456447	0.034425197125
0	1082304	2782.687235714771	0.761281104363
0	1082378	2782.870452673136	0.029647974324
0	1082827	2783.934891640128	0.025380999752
0	1084133	2787.257724278581	0.207062699545
0	1086772	2794.688625146119	0.023059557047
0	1087650	2796.903947434378	0.033426838636
0	1087747	2797.119032581316	0.024526198419
0	1087998	2797.859699781187	0.0259352522
0	1088193	2798.56686624344	0.385024059162
0	1088555	2799.162247892682	0.016470016424
0	1088667	2799.470152565131	0.020320097188
0	1088870	2799.825619364439	0.034215009469
0	1089131	2800.521308533352	0.022843162276
0	1090231	2803.530328949334	0.021193249791
0	1091099	2805.676347405312	0.02347633593
0	1091744	2806.77581756104	0.024157956937
0	1091799	2807.018414182412	0.029229957088
0	1092172	2808.390270645088	0.036685481887
0	1095301	2815.621293905504	0.441175493247
0	1095485	2815.95494493265	0.027368166903
0	1096230	2817.953420415624	0.0285866234
0	1096401	2818.473995535903	0.025078069557
0	1096628	2818.71230277245	0.033916040457
0	1096752	2819.054186771239	0.027799885048
0	1097654	2820.881503441381	0.023025758875
0	1097787	2821.100453644562	0.020404955562
0	1099663	2825.295867438135	0.260387338284
0	1099728	2825.487537001192	0.031623041501
0	1100224	2826.935226635187	0.026218029545
0	1103174	2832.78771217312	0.021051638017
0	1103787	2834.668159669544	0.029403156833
0	1106240	2841.095483453978	0.023230382754
0	1106803	2842.190943074984	0.020956356868
0	1108462	2846.574016794262	0.031397105508
0	1108778	2847.515963997793	0.023170477494
0	1110471	2851.962927472026	0.023532868754
0	1110987	2853.367713282145	0.259838720089
0	1111122	2853.662792007881	0.024541668331
0	1113360	2860.067875622594	0.26675975552
0	1114805	2863.243506909697	0.027763057486
0	1116284	2867.045418223748	0.026320813249
0	1118119	2871.088116353313	0.031349860831
0	1118676	2872.364032816727	0.036033872003
0	1119000	2873.216384481393	0.42969092117
0	1119092	2873.50719836065	0.022688582056
0	1119284	2874.07127081449	0.029396376444
0	1119940	2876.004533900907	0.034782494702
0	1120139	2876.487171190017	0.191754706041
0	1123229	2884.777678440624	0.029503555391
0	1123864	2886.758278525076	0.026165769403
0	1124415	2888.16953727506	0.017601549936
0	1125065	2889.735352333679	0.028722505171
0	1125309	2890.767355747754	0.24307110509
0	1126652	2893.576715126865	0.058085425299
0	1126841	2893.862898186763	0.028714256281
0	1127868	2896.309410685594	0.247104057914
0	1128688	2898.24063217866	0.024531325814
0	1128881	2898.451906723757	0.019832352205
0	1129944	2901.05761861526	0.026208405127
0	1130650	2901.99799903715	0.024712602131
0	1130872	2902.695722134087	0.281762223184
0	1130966	2903.249301887927	0.201089467606
0	1131521	2905.0256953411	0.45206025384
0	1134986	2913.031634887087	0.435573467097
0	1135463	2914.124323271293	0.211780735277
0	1135624	2914.415163923515	0.028311088001
0	1135944	2915.35945299656	0.022627153951
0	1136319	2916.991817001186	0.45134438416
0	1136732	2917.78901355073	0.026449211796
0	1137630	2920.204341828796	0.026636748509
0	1138500	2922.647447518076	0.268676553081
0	1139685	2925.339157280845	0.018965354431
0	1140602	2927.346638033241	0.041551503135
0	1144929	2938.099898783887	0.028613780144
0	1145006	2938.312443374649	0.04445223376
0	1145822	2940.491884450532	0.025348834282
0	1146495	2942.288655395859	0.034552250047
0	1146641	2942.907557294863	0.037589784044
0	1147276	2944.913736246085	0.022424495177
0	1151029	2953.258654613102	0.021595241733
0	1151196	2954.170507861225	0.603590776925
0	1151252	2954.398442265648	0.020089856267
0	1154709	2962.25235185961	0.031622561402
0	1156159	2965.716512731066	0.02509370406
0	1156708	2967.006074010358	0.021283450432
0	1157254	2968.459829339978	0.034408926163
0	1159397	2973.921542228827	0.037346986431
0	1160829	2977.825193200858	0.268659883197
0	1161761	2980.032429082339	0.030585046546
0	1165406	2988.47547356831	0.032321743104
0	1166284	2991.100694673069	0.463458275435
0	1167489	2994.412810510809	0.038298386709
0	1168620	2997.027663783986	0.022671227546
0	1170075	3000.400543157523	0.204330153242
0	1170330	3001.0040062409	0.022746190235
0	1173333	3008.874191054292	0.031621670033
0	1174208	3011.378104550774	0.034922925406
0	1174311	3011.698517595276	0.051036151407
0	1174723	3012.341868882296	0.03358574956
0	1175089	3013.262005376236	0.033018763862
0	1175278	3013.831497393037	0.019247026978
0	1175585	3014.900412359462	0.025252345352
0	1176265	3016.596563059199	0.031890417868
0	1182779	3031.24538021951	0.032188132486
0	1184112	3035.043715882466	0.031402760572
0	1186960	3041.521271886192	0.027849688676
0	1187243	3042.887912905149	0.465091262893
0	1187706	3044.149216067474	0.023124410292
0	1188355	3045.52410175123	0.026612644432
0	1189210	3048.059962254977	0.050844364626
0	1190283	3050.613668441927	0.027398993149
0	1190561	3050.931348407999	0.019242929136
0	1190855	3051.424309127421	0.196544770338
0	1191254	3052.417728177069	0.437089545647
0	1192180	3055.060279986511	0.214791730635
0	1192378	3055.799282665358	0.030560953837
0	1193365	3059.146260536267	0.028707364799
0	1195921	3064.99788060854	0.031624079486
0	1197715	3070.885818024733	0.038889175748
0	1198329	3072.910011578307	0.495037204895
0	1199384	3075.742878872448	0.033054280908
0	1201312	3079.868011961084	0.020018915396
0	1202185	3082.062341350899	0.020781490402
0	1202937	3084.333584292582	0.028264679376
0	1203377	3085.955596341186	0.028702133361
0	1203555	3086.386099163274	0.031021954624
0	1203662	3086.856321457192	0.028583605724
0	1205843	3093.353593359289	0.025588677547
0	1205921	3093.574695194858	0.02303398166
0	1206078	3094.017241639469	0.038818980031
0	1206894	3096.267316002751	0.055242726448
0	1207675	3098.120455481801	0.019220252121
0	1208597	3100.824179683586	0.212063106946
0	1209715	3104.673701018812	0.027967779889
0	1210214	3105.898135390723	0.025364406
0	1211905	3110.910364103788	0.027831794018
0	1212250	3111.979320499498	0.034393478392
0	1212301	3112.26239568315	0.102219747104
0	1212574	3112.982257596361	0.022272194462
0	1213740	3115.332015189522	0.018032073206
0	1218113	3126.574934014947	1.025795308556
0	1219356	3129.942827378596	0.028264560456
0	1220997	3134.815359176717	0.021062184641
0	1221599	3136.471618820707	0.022663432164
0	1223390	3141.708170384015	0.024601556119
0	1223523	3141.998382172621	0.022885185122
0	1223975	3142.920148691575	0.023064604479
0	1225659	3146.63458322605	0.024342672575
0	1226541	3148.527200638953	0.028158839209
0	1227206	3150.524634162482	0.030460267246
0	1229341	3155.954535404358	0.026507904558
0	1231583	3161.082107770177	0.292664713312
0	1232764	3164.357367475545	0.023273847187
0	1238662	3181.948301253561	0.051614590333
0	1239777	3184.313317803521	0.026373302454
0	1239853	3184.646185880627	0.026941951657
0	1240038	3184.938447144927	0.053126239829
0	1246975	3203.187533476339	0.458401571687
0	1247020	3203.438935187023	0.032148174957
0	1247638	3204.902945509038	0.028496199639
0	1247697	3205.093777194886	0.022092233105
0	1251914	3216.088582755284	0.030754134809
0	1253485	3220.322281475028	0.037412814628
0	1254190	3223.162462136592	0.019142537375
0	1254836	3224.401587349526	0.236540706363
0	1255808	3226.735412309323	0.029016987077
0	1255904	3227.017547531434	0.022971971405
0	1256230	3227.928746785593	0.019817598233
0	1261581	3241.725523690233	0.039767852249
0	1263220	3245.097749747437	0.02448106539
0	1263425	3245.916790829107	0.219472836512
0	1265488	3250.917563309622	0.053580109088
0	1267563	3255.634026130227	0.021693458173
0	1267843	3256.25092905567	0.024784035399
0	1269192	3260.488640168495	0.024134253697
0	1269538	3261.366102865411	0.207406712554
0	1270206	3262.970716953038	0.032162418236
0	1271391	3265.386665810557	0.020057234319
0	1273564	3269.822287031694	0.031643225805
0	1276039	3274.738435880619	0.03619232918
0	1276137	3275.00875329047	0.022663199988
0	1277318	3277.213683605679	0.023962955911
0	1277861	3278.409239925105	0.237230633082
0	1278102	3279.220933353371	0.043777052896
0	1279442	3282.287183378929	0.023560168099
0	1283989	3293.222427066196	0.02259848454
0	1285543	3296.231755198405	0.03306948813
0	1287001	3299.950350930403	0.019088659744
0	1287196	3300.39931314779	0.028803165275
0	1287911	3302.431134731444	0.302820623058
0	1288040	3302.760420642526	0.070686193648
0	1290673	3309.127078933406	0.030051047068
0	1290887	3309.880480248561	0.024644308368
0	1291093	3310.322485916753	0.028219608333
0	1291492	3311.301320131625	0.021597970917
0	1291737	3311.825049189585	0.336145739949
0	1291870	3312.044651932524	0.030298432221
0	1292214	3313.151422568164	0.240002235545
0	1292402	3313.711636298617	0.023629678867
0	1292754	3314.951545663625	0.217690636318
0	1293609	3317.255224970246	0.02614585715
0	1294426	3319.305781072645	0.038577414524
0	1294999	3320.617708706092	0.036619601452
0	1295124	3321.188066044258	0.241334103721
0	1296194	3324.178281276389	0.020675893942
0	1296720	3325.69502761354	0.020374041019
0	1298076	3329.247330124412	0.023215986825
0	1299444	3332.718556030919	0.198147631328
0	1304458	3346.131716032213	0.022202215695
0	1304672	3346.680052566923	0.020781226854
0	1305410	3348.209610678895	0.025358004454
0	1305549	3348.417340874297	0.029419338799
0	1306582	3351.645002712049	0.030421897804
0	1308781	3357.308876516684	0.439556099224
0	1310533	3361.647541339166	0.229899115402
0	1311561	3364.073514920469	0.026525934222
0	1311637	3364.397796320567	0.042228592978
0	1313060	3368.413497912005	0.242466740217
0	1313255	3368.697043668867	0.047035828384
0	1316107	3373.922977342441	0.260397948295
0	1316553	3374.889781256497	0.206984813664
0	1316835	3375.776907109933	0.058943997176
0	1316902	3376.069400353941	0.036817095735
0	1317179	3376.774005901701	0.032616092149
0	1317428	3377.370880483434	0.025660704464
0	1318503	3380.800996752192	0.229692074202
0	1318633	3381.027893424536	0.021070399653
0	1320099	3385.282391002791	0.022623704858
0	1321907	3390.542029723361	0.026234409454
0	1323409	3393.013220181198	0.024871059338
0	1323886	3394.425527858742	0.028388354906
0	1325370	3397.843831193705	0.030910452966
0	1325993	3398.981260512844	0.033974144945
0	1328609	3405.556875615948	0.022627882095
0	1329412	3407.316081422063	0.04322835813
0	1330067	3408.928489493482	0.026173489206
0	1331169	3412.480468395256	0.034209711931
0	1331697	3413.59480203532	0.024986417588
0	1331946	3414.135906104727	0.036844041002
0	1332455	3415.364563054975	0.045528022268
0	1335756	3423.368641065027	0.021103791305
0	1336047	3424.185931297666	0.021250833979
0	1336758	3425.873194929306	0.029226459215
0	1336833	3426.06893724958	0.02440034249
0	1337416	3427.2761710464	0.043542803767
0	1337877	3429.254518237352	0.040196050713
0	1338387	3430.218023794095	0.022434774176
0	1341114	3437.27720824952	0.722356211633
0	1341409	3438.101738353979	0.023486420575
0	1341500	3438.298057425017	0.028193581099
0	1342353	3440.240604510428	0.214321106366
0	1343389	3442.200969809195	0.022031849705
0	1343661	3443.41844611526	0.21013073562
0	1346265	3449.966372410044	0.037620412823
0	1347190	3452.469673627342	0.029305732712
0	1348870	3455.719870021899	0.022512551914
0	1348947	3455.936347320146	0.029537792072
0	1349303	3456.995090378936	0.029480954343
0	1349975	3458.408311571974	0.02005923855
0	1350797	3460.623339036927	0.212705700595
0	1351446	3463.366883626932	0.024816594098
0	1352937	3466.590176343993	0.020537589449
0	1353369	3467.696877155666	0.198381553052
0	1353797	3469.080923992472	0.029436437589
0	1354103	3469.927492575773	0.02332473889
0	1355369	3473.298871225027	0.022586957929
0	1356805	3477.071831741798	0.019702413072
0	1358996	3483.07913009625	0.039047196674
0	1359480	3484.46051080359	0.211877038097
0	1359644	3484.770733619978	0.032509547396
0	1360514	3486.601951011114	0.02861634357
0	1361468	3489.08933771998	0.025691483191
0	1362040	3490.822397628192	0.31125345421
0	1362366	3492.10091664936	0.029027027704
0	1362766	3493.530198484856	0.026942472772
0	1364180	3496.996534250886	0.024268438294
0	1364560	3498.424484868927	0.49604926582
0	1364882	3499.244871194589	0.027719189678
0	1367166	3504.143755988962	0.043850605568
0	1367432	3505.172157558451	0.030953570499
0	1368758	3509.20324196916	0.02125652209
0	1368873	3509.54369702327	0.027031621177
0	1369221	3511.048563048792	0.031028001652
0	1370373	3514.407963478081	0.032019148552
0	1371014	3515.902865681831	0.020493761571
0	1372167	3519.096879889824	0.268465297122
0	1372438	3519.727223821143	0.026936665415
0	1372977	3521.03978975744	0.058809959006
0	1373063	3521.299776821067	0.029096290507
0	1373293	3522.24194551903	0.022260055104
0	1373751	3523.573289885427	0.186597412715
0	1374623	3526.235147137054	0.256464745835
0	1376044	3529.814962184858	0.029572285477
0	1376133	3530.009714662667	0.02230314536
0	1376884	3531.637561809165	0.0234435229
0	1377003	3532.067863910414	0.033535154352
0	1380267	3541.081460753196	0.030892796418
0	1380440	3541.647046325006	0.031809440885
0	1380515	3542.069220550233	0.032586452064
0	1381327	3543.865908808869	0.028080266144
0	1382888	3548.082024613176	0.024340133396
0	1383229	3548.892652047627	0.020940021713
0	1383441	3549.629390567006	0.028104486427
0	1383743	3551.105769738873	1.159311913228
0	1384090	3552.561355781048	0.255858829273
0	1388527	3563.131804916146	0.0241734604
0	1389183	3564.820728449428	0.243584754384
0	1390499	3567.263021505587	0.017105166159
0	1390633	3567.755460318807	0.028657345565
0	1391132	3569.021681109599	0.027899008592
0	1393922	3576.168904153526	0.023090359345
0	1395273	3580.008404714289	0.032388602461
0	1396343	3582.861213443067	0.018680185863
0	1396544	3583.481474476426	0.030201367384
0	1397301	3586.005579732199	0.030926210555
0	1398867	3589.637708087218	0.025954269202
0	1398984	3590.065232137212	0.030767246321
0	1399112	3590.473368353483	0.028738547186
0	1399625	3592.106112199802	0.026787433116
0	1400880	3595.471116231147	0.038469843652
0	1401053	3596.424532068222	0.755440634176
0	1402549	3599.959832538908	0.028651942906
0	1403007	3601.378789645044	0.019013659044
0	1403425	3602.604727948262	0.026386148231
0	1403740	3603.463888277108	0.025797265655
0	1404213	3604.824443416098	0.02203775473
0	1405237	3607.048546599462	0.020142351724
0	1405574	3608.099110950841	0.25131703696
0	1407317	3611.988038770208	0.028310336375
0	1407796	3613.991282762127	0.041219422845
0	1409467	3619.275662117837	0.031584821517
0	1410028	3620.988206440572	0.030513298594
0	1410322	3621.890240054562	0.039182682978
0	1410598	3622.246205618236	0.027686240787
0	1411172	3624.139301641457	0.02864079304
0	1411789	3625.767118208301	0.049150708224
0	1412437	3627.57224126926	0.202827989632
0	1413473	3629.004736572954	0.017769354723
0	1415497	3634.222776062719	0.020813493326
0	1416626	3636.56629058033	0.032194271488
0	1416910	3637.699809948718	0.017112279015
0	1417136	3638.227205095316	0.027100453257
0	1417737	3639.854825287528	0.026445897069
0	1419666	3645.043995038697	0.279989502212
0	1421421	3649.592339991589	0.028182807452
0	1425265	3658.15850555793	0.03312164983
0	1426333	3660.507219465206	0.044241452657
0	1427516	3663.495417845561	0.023188413179
0	1429620	3668.410349654078	0.021988101112
0	1431699	3673.899707144684	0.025821967356
0	1431928	3674.680671136059	0.027522326504
0	1433544	3678.47783599992	0.025883804053
0	1433620	3678.724777565336	0.0267517005
0	1433879	3680.07984651555	0.855882712694
0	1435458	3683.210320147639	0.031369773703
0	1436004	3684.430367904263	0.029142415962
0	1437063	3687.567523126534	0.51052575003
0	1437474	3688.7875680968	0.315208051552
0	1437685	3689.097070153798	0.022303933547
0	1437877	3689.72306251082	0.035232698963
0	1438068	3690.562768262725	0.024085095774
0	1438188	3690.82856266236	0.028292881207
0	1438313	3691.289617918724	0.02456361059
0	1439354	3693.504614836486	0.020295387094
0	1439449	3693.861251514523	0.034078267369
0	1439734	3694.621463319149	0.024581585488
0	1441877	3701.44956930888	0.018518226674
0	1446121	3711.095781666436	0.020830028141
0	1450682	3722.715739064103	0.028265349217
0	1450767	3722.96897581273	0.025122619568
0	1453418	3729.555013852058	0.414116451982
0	1453715	3730.172836556081	0.020977413048
0	1454287	3731.995043956527	0.021421164921
0	1454658	3732.900913280777	0.037722832248
0	1458165	3740.096125924365	0.024658074619
0	1458800	3741.744320078916	0.025411039269
0	1459274	3742.595517708158	0.03607484146
0	1460149	3744.71386833237	0.025296698657
0	1460288	3745.489339070789	0.029209334032
0	1461786	3749.075097080392	0.023101037741
0	1464202	3755.282325513119	0.030404212938
0	1464415	3755.936219088203	0.480441941394
0	1469473	3769.214751665699	0.033606407561
0	1469821	3769.955074426053	0.025798655903
0	1471319	3773.128258184177	0.024585014199
0	1473370	3776.671072035704	0.032696522096
0	1473473	3777.012561132299	0.031747628303
0	1474416	3779.143082202668	0.028518750043
0	1474598	3779.518638189446	0.030110612814
0	1475724	3781.743654732789	0.036826983795
0	1477749	3785.972266723701	0.270296619209
0	1477917	3786.251535676922	0.038198493128
0	1478898	3788.766390365921	0.032474029638
0	1479010	3789.044850290257	0.037743241019
0	1479401	3790.008699128475	0.029868524247
0	1480716	3793.628863829299	0.025313189408
0	1481003	3793.936224291727	0.034944764075
0	1481508	3795.082459369609	0.024729097922
0	1482198	3796.152294157492	0.022685178625
0	1482802	3797.41559709546	0.027144710076
0	1482926	3797.914805384273	0.030792206171
0	1483387	3799.198907434773	0.028104510294
0	1484777	3802.137126527363	0.034128885238
0	1486196	3806.206824750936	0.436420540182
0	1487183	3809.224221507344	0.945727878466
0	1487750	3810.766304619507	0.037032603191
0	1488245	3812.573802241251	0.031185317191
0	1488493	3813.257688132952	0.021083031973
0	1489292	3815.197852660744	0.045329028469
0	1489716	3816.25667656678	0.019865341828
0	1490620	3818.294493000462	0.232309810628
0	1491961	3821.029781521987	0.026728882284
0	1493022	3824.010018563549	0.041275431702
0	1494106	3827.45552488975	0.030227642961
0	1496291	3832.040891156564	0.037278882702
0	1496723	3833.375152530444	0.407253738096
0	1497584	3835.658033628194	0.018146510349
0	1497736	3835.916986354142	0.030604471996
0	1500673	3842.841229434299	0.019603463281
0	1502080	3846.871712684673	0.051165121422
0	1502795	3848.982064879556	0.034750202778
0	1503672	3851.937236131354	0.021615993537
0	1504054	3852.728111418078	0.02899667721
0	1504365	3853.592208706084	0.036888194054
0	1504459	3853.817210849591	0.036121019519
0	1506321	3859.694997109955	0.052662182708
0	1508338	3864.794131225368	0.028079904894
0	1509378	3867.346009306684	0.033808251046
0	1509447	3867.574236901669	0.029027511565
0	1509558	3868.027189881189	0.016954107457
0	1511045	3871.207110344355	0.227314640994
0	1512785	3875.200627644436	0.039463870495
0	1513307	3877.01099235787	0.216744285107
0	1513808	3877.936510737823	0.025735339331
0	1514786	3880.610545173348	0.502807498807
0	1515628	3882.674543434312	0.024393281174
0	1517933	3888.17235124579	0.033832432609
0	1518680	3891.335132635363	0.597510353376
0	1518845	3891.914221694426	0.053337891587
0	1519164	3892.773237890294	0.040164434574
0	1522024	3900.184609563753	0.02577031331
0	1522168	3900.684930932732	0.24723243583
0	1522315	3900.995382158271	0.043553204572
0	1523574	3903.966499116245	0.378395474222
0	1524541	3906.391867910465	0.054205147198
0	1525284	3908.126137514416	0.035534790573
0	1525486	3908.487354350077	0.037061460005
0	1525626	3908.951326440838	0.027313948432
0	1526038	3909.905472952172	0.025797429547
0	1530614	3921.348388340325	0.023615075178
0	1530981	3922.428366330548	0.025765172838
0	1531318	3923.726361971935	0.02764844783
0	1531673	3924.594663109653	0.020019898695
0	1534517	3930.455942569149	0.017536037041
0	1536103	3934.374463647631	0.030698847102
0	1536486	3935.1463214302	0.023278718397
0	1536732	3935.865822871249	0.023529442056
0	1537750	3938.014815819224	0.194630377462
0	1538025	3938.830258085245	0.024283488218
0	1540193	3943.604231298829	0.029358244431
0	1540592	3945.61719115876	0.798271517483
0	1541175	3947.934122530186	0.021360644191
0	1541661	3948.989378446633	0.03150953951
0	1543353	3953.363854047446	0.028648876596
0	1545100	3958.178983706758	0.040575225812
0	1545558	3959.630592175661	0.022214571849
0	1545685	3959.881504637174	0.0253376054
0	1552149	3978.137493541394	0.023337837199
0	1555090	3984.725343166702	0.024747241301
0	1555467	3985.48267162634	0.021371006189
0	1557478	3989.869764422085	0.031526404951
0	1557533	3990.115275865871	0.026152641873
0	1558031	3991.737773802051	0.236584453887
0	1558171	3992.018061946979	0.041833332619
0	1558255	3992.239749635599	0.020505238123
0	1558390	3992.552373654818	0.024143243606
0	1560146	3997.002243653315	0.021622043818
0	1560279	3997.369292690205	0.039250369595
0	1561117	3999.392149980071	0.204854976303
0	1561678	4000.904564316257	0.02607635763
0	1562060	4001.787234500334	0.031476537949
0	1563305	4004.860215345592	0.047566419454
0	1563576	4005.679256342351	0.031843242004
0	1565571	4010.219187443522	0.024238765933
0	1566636	4012.787936911993	0.032541414957
0	1566726	4013.092563837026	0.023512683642
0	1566785	4013.276979849342	0.024888085581
0	1567382	4014.805760096954	0.023022489407
0	1567490	4015.104416548308	0.026170134706
0	1568636	4017.535682183006	0.025221401962
0	1571510	4024.798344515764	0.047271398623
0	1572207	4027.418412548651	0.050740977361
0	1572467	4028.027618923355	0.023188637194
0	1573652	4031.325753556891	0.238340244186
0	1574354	4033.100407783423	0.021527312321
0	1575153	4035.620322022757	0.026405706425
0	1576997	4039.356252394692	0.039256390192
0	1578888	4043.671103336517	0.026941030083
0	1579376	4045.070528206565	0.025786463899
0	1581656	4050.930908724589	0.026176042954
0	1581747	4051.173251762641	0.024062116143
0	1582808	4053.871739437138	0.030144300207
0	1584158	4057.488768408964	0.024845547453
0	1585286	4059.697338871242	0.019022426316
0	1585370	4059.932893551117	0.018724968092
0	1585485	4060.122229818952	0.025884781066
0	1585880	4060.932108604703	0.024424989948
0	1589298	4067.92471445001	0.026882806516
0	1590855	4071.44139631994	0.041456057208
0	1591322	4072.513016431487	0.022044202709
0	1591885	4074.097245111662	0.020782337783
0	1592312	4075.844061558479	0.584605722512
0	1593076	4077.156600074479	0.037994500555
0	1593178	4077.500210392348	0.027903241581
0	1593568	4079.30075959499	0.869496045002
0	1594131	4081.020735700867	0.025701715913
0	1594279	4081.661966258741	0.367553034383
0	1596354	4085.878670017309	0.024835004207
0	1596545	4086.446983206046	0.021845338099
0	1597100	4088.253453508581	0.042219024235
0	1597289	4088.585270756553	0.02382847121
0	1597533	4089.357148567727	0.02588898118
0	1598647	4092.01308100343	0.037123374836
0	1598740	4092.262634458201	0.023925532821
0	1599264	4093.374241215826	0.027348452001
0	1599391	4093.894926081282	0.02688938434
0	1599466	4094.089439474952	0.022152664766
0	1601046	4098.049516574509	0.03538446374
0	1602898	4103.637224158163	0.023318048973
0	1602979	4103.877161726745	0.040610344801
0	1603370	4105.059937131921	0.028952512629
0	1605844	4111.283936782265	0.238181567035
0	1606604	4113.183674693332	0.035117678643
0	1607007	4114.228412434946	0.032454266074
0	1608048	4116.462797219061	0.023465402236
0	1609704	4121.285230158166	0.020591865626
0	1610674	4123.585160076901	0.022503665971
0	1612427	4128.469310444109	0.0420307421
0	1614653	4134.240928876196	0.19215633199
0	1615092	4136.212063337247	0.032130270348
0	1616446	4139.311643468107	0.023981879654
0	1616986	4140.652891296249	0.024188673494
0	1618305	4143.542529502953	0.020543019762
0	1618426	4143.863211679755	0.023520930698
0	1621511	4151.681907394206	0.024406852655
0	1623070	4155.193428661266	0.028486737785
0	1624513	4158.141903532063	0.028608206654
0	1625686	4161.595012162215	0.028257392351
0	1626104	4162.563030996183	0.032638025564
0	1627963	4167.628198506136	0.213457431875
0	1628278	4168.242754751052	0.208939141271
0	1628787	4169.618480501393	0.035587375048
0	1628878	4170.073228214815	0.031485140971
0	1631533	4177.056859032909	0.225099201021
0	1632451	4179.890221242014	0.27369133452
0	1632568	4180.080565110171	0.022445315352
0	1633095	4181.879158339245	0.699770155809
0	1633542	4183.274712266681	0.021322365153
0	1633762	4183.865352771004	0.033971488068
0	1633993	4184.556737527752	0.026355427128
0	1635114	4186.922322804607	0.031095117975
0	1636613	4191.245267691539	0.034648851191
0	1636890	4191.959554754841	0.040519274259
0	1637098	4192.545058580056	0.030367307975
0	1637558	4193.656123103064	0.027076089423
0	1638003	4194.596657110142	0.038534654516
0	1638699	4195.943068070375	0.028038857699
0	1639475	4197.539945529593	0.026848017064
0	1639819	4198.610764250137	0.030444689538
0	1641181	4202.695656766264	0.236276577257
0	1648037	4219.551278090873	0.19807753316
0	1649683	4223.367364966901	0.24865480055
0	1650434	4225.174664648383	0.221847960372
0	1650836	4226.875516823359	0.023526457776
0	1650954	4227.197494770888	0.032161045117
0	1651660	4229.01434538341	0.033158708522
0	1653655	4234.508717479259	0.025439493296
0	1660499	4252.098603473408	0.031574941133
0	1660741	4252.386824807949	0.033874133774
0	1661386	4253.797390368883	0.018632813565
0	1663405	4259.643020225859	0.224082916684
0	1664854	4263.07513034465	0.0275594476
0	1666046	4265.540353774056	0.032799036146
0	1667729	4269.30731331818	0.284246873589
0	1668564	4271.103823902611	0.206614843016
0	1670676	4276.373216497977	0.262134353875
0	1673260	4282.931644499802	0.021866846332
0	1673371	4283.239650238591	0.021886972575
0	1673545	4283.834826746288	0.022789562329
0	1676667	4291.406604794261	0.020184046095
0	1677399	4293.832806477092	0.040213018711
0	1677922	4295.563665151714	0.024350404887
0	1678491	4297.104733093427	0.024214146983
0	1679100	4299.026047087008	0.025329818227
0	1679385	4299.737547927669	0.021450378962
0	1681564	4304.579697826044	0.257006406138
0	1681819	4305.301645097282	0.039599859501
0	1682528	4306.97111241934	0.036382252507
0	1683442	4309.381825651678	0.02060472076
0	1683783	4310.924566238227	0.660711143904
0	1686439	4316.805452702452	0.021913135742
0	1686977	4317.892902387109	0.021513155078
0	1687100	4318.226601387331	0.062561679231
0	1687374	4319.329913473748	0.036902781744
0	1687960	4321.416094836196	0.027737645468
0	1688098	4321.894496371935	0.033444755945
0	1690534	4326.50586767132	0.028700129595
0	1691724	4329.905595209219	0.017054511823
0	1691865	4330.261905840114	0.026458320215
0	1691933	4330.450464766482	0.025739643714
0	1692205	4331.873875370095	0.49447006729
0	1693898	4335.950752674771	0.020345764163
0	1694093	4336.548958895303	0.035233689774
0	1694941	4339.145398144417	0.023375810895
0	1695478	4340.416539927199	0.023941864343
0	1695696	4341.255696981778	0.02327517221
0	1695940	4342.048881824057	0.034764146956
0	1696406	4343.226981395257	0.031838700956
0	1696511	4343.55965024219	0.019095478194
0	1701629	4354.534037764426	0.042466758992
0	1702093	4355.454709987037	0.03218205316
0	1702343	4356.068414776415	0.037395970558
0	1703732	4358.924519486633	0.065448331603
0	1705928	4364.742557431185	0.03635279389
0	1707769	4369.18923355418	0.026932658807
0	1708128	4370.120543429074	0.028086367097
0	1708250	4370.813375962446	0.032141184331
0	1708820	4372.849024537944	0.024440656128
0	1709790	4375.577812115094	0.023689018821
0	1711098	4379.012099934251	0.023480388395
0	1711391	4379.756798347584	0.02151050752
0	1712147	4381.073481193783	0.025818480578
0	1712340	4381.394421799033	0.01887065694
0	1712969	4382.975341071163	0.023170917811
0	1713123	4383.260900876484	0.027277227092
0	1715237	4388.602364897254	0.030493896467
0	1717206	4393.652868334839	0.206525590581
0	1718501	4396.830011658	0.221044048956
0	1719616	4399.158104993698	0.023320453568
0	1721819	4403.877566408578	0.61408441011
0	1724749	4410.079900960123	0.036126581086
0	1727122	4415.441615304345	0.018869391268
0	1727328	4415.86153663847	0.02121300574
0	1728630	4419.446381936669	0.26692250277
0	1728928	4420.49346286231	0.019327067046
0	1729612	4422.362528287177	0.025608235032
0	1731112	4426.081115058044	0.037492064125
0	1731557	4427.242961458482	0.026206222808
0	1731713	4427.994256720749	0.036972687493
0	1732546	4430.715666005698	0.248933801396
0	1733352	4433.916536025206	0.018462588031
0	1733626	4434.645353439648	0.023320827284
0	1734750	4437.335591623297	0.024616571966
0	1734845	4437.591493725271	0.034011219951
0	1735723	4440.663360328551	0.252816833239
0	1736055	4441.242625262576	0.029505745754
0	1736137	4441.438598621809	0.033572978411
0	1737536	4444.133059827646	0.033684837316
0	1738217	4446.432235238604	0.633956943325
0	1738397	4446.839803770681	0.033005239571
0	1739672	4449.814829120264	0.026107258255
0	1742612	4460.097542614196	0.019965386173
0	1744557	4464.238863022347	0.022898180923
0	1745168	4466.146059717629	0.258131862034
0	1748502	4473.868520631435	0.026320797475
0	1748819	4474.883303329626	0.253027724945
0	1749025	4475.532082055711	0.036026600231
0	1749102	4475.766079369133	0.025144272295
0	1749159	4475.968898909671	0.032549532708
0	1749406	4476.75242739463	0.036472221423
0	1750177	4478.814909095225	0.031712549226
0	1750349	4479.119430042492	0.039206348965
0	1750403	4479.317307292406	0.023669334703
0	1751045	4481.423014715593	0.02346727494
0	1753277	4487.36417825887	0.026090624374
0	1755318	4492.732407787166	0.032228344483
0	1756141	4494.469659587092	0.019265940068
0	1756664	4495.755063947416	0.026495472626
0	1757194	4497.14192174848	0.020410908946
0	1757874	4499.29464789051	0.027459014611
0	1758023	4499.557457323616	0.037284486774
0	1758467	4500.844157791595	0.035577988546
0	1758576	4501.065552181754	0.02128188846
0	1760363	4505.71807789752	0.027890933762
0	1761658	4509.052617174011	0.026522728554
0	1761933	4509.859925128127	0.033224190366
0	1762871	4512.211377558653	0.050173817694
0	1766895	4521.093757728839	0.028318745937
0	1768752	4526.012344771715	0.19433233089
0	1769656	4528.448047907771	0.026345338477
0	1770597	4530.120639618221	0.022307329411
0	1772175	4533.859722404526	0.035355812255
0	1773755	4538.17798142904	0.035354953111
0	1776114	4544.29892946859	0.022647572137
0	1776525	4545.27141069523	0.020875047871
0	1777631	4547.835972965893	0.030304765312
0	1777792	4548.582619322903	0.026385374407
0	1778851	4550.964118758971	0.227359789504
0	1780450	4555.566697003075	0.239304237846
0	1781699	4558.664992614703	0.034886344811
0	1782901	4562.011404599173	0.022789425448
0	1783242	4563.156846567929	0.220288975319
0	1783332	4563.646865821471	0.053825683463
0	1783390	4563.930941553094	0.030278014756
0	1783564	4564.308248994269	0.041226023152
0	1784733	4567.01558822591	0.024938417875
0	1784869	4567.602650130279	0.029314362765
0	1786271	4571.563102464015	0.471280452047
0	1789482	4578.432227277504	0.027606440934
0	1790329	4580.557891613534	0.027352861924
0	1790396	4580.843099698387	0.032886260413
0	1790806	4582.482637692513	0.205495005466
0	1791412	4583.520099233285	0.027056140118
0	1797184	4597.944037721975	0.443301321783
0	1798146	4600.970701822257	0.05100591415
0	1799987	4605.994606695994	0.023569369439
0	1801107	4608.789916372096	0.455052426866
0	1801281	4609.331526466379	0.027563953443
0	1802067	4610.987126668473	0.665222947013
0	1802298	4611.807385603109	0.021332258536
0	1806235	4621.114264519273	0.048440572846
0	1806641	4622.1468596741	0.023761386902
0	1808548	4626.875833585224	0.020435980523
0	1809768	4629.519496221006	0.029832240988
0	1810808	4632.292629303108	0.235822394782
0	1811783	4634.894762288758	0.228255226386
0	1813020	4638.16117968211	0.027210381641
0	1814769	4643.257461144396	0.031155516079
0	1814880	4643.575642368154	0.03198857381
0	1817805	4650.131022690789	0.02127258467
0	1817896	4650.351963191973	0.033878178337
0	1819214	4653.42215546347	0.403136121403
0	1819368	4653.735062632469	0.021842270743
0	1820689	4656.699369807503	0.031225089155
0	1821614	4659.174573724176	0.216049208997
0	1822396	4660.960065667176	0.029723903331
0	1825820	4669.280286225158	0.035398650354
0	1825960	4669.48956563587	0.019356447845
0	1827628	4672.801629505599	0.031403126842
0	1827800	4673.086327946892	0.024217589018
0	1828087	4673.651622088548	0.041897500475
0	1828204	4673.91320274398	0.026239458285
0	1829944	4678.180677192741	0.042346395541
0	1830688	4680.140622085369	0.028273927492
0	1831906	4683.441505586248	0.044639749475
0	1833556	4689.109939803553	0.421147470401
0	1835019	4693.209973201506	0.02342011761
0	1835328	4694.44351540666	0.232102587783
0	1836513	4697.456451599089	0.037742483789
0	1836702	4697.912022541947	0.025678206972
0	1838568	4703.252678472478	0.024525922981
0	1838753	4703.981282757777	0.026753938769
0	1840172	4706.665065265459	0.021244095705
0	1840268	4706.894612681604	0.026960464799
0	1841044	4708.71054561984	0.033451824115
0	1841345	4709.621873701826	0.026102246501
0	1842228	4711.652268864926	0.023073262514
0	1845173	4718.821993796787	0.244535275266
0	1846810	4722.981075396939	0.035147070539
0	1848300	4727.140532272452	0.039328210678
0	1848932	4728.483172237326	0.03952713941
0	1849242	4729.606344815431	0.046790270363
0	1849287	4729.8476473572	0.037117777624
0	1850180	4732.748130856383	0.201405805576
0	1850427	4733.495249137752	0.031457919325
0	1851058	4734.866801081084	0.030307635338
0	1851171	4735.377054947096	0.027378666162
0	1852015	4737.748348331749	0.034780711822
0	1852776	4739.232359997124	0.366277556118
0	1852911	4739.502645120973	0.028907667483
0	1854556	4743.648485603296	0.24491765744
0	1856305	4748.55931941697	0.022315678686
0	1857503	4752.600203141119	0.025540699339
0	1858053	4753.870295982304	0.028136015335
0	1859485	4757.291689447227	0.03368225326
0	1860079	4758.555058736532	0.026095638703
0	1861152	4761.363111508441	0.018002102766
0	1863022	4765.633870637938	0.023730550224
0	1863147	4765.826052437357	0.020755942365
0	1863214	4766.047270991804	0.029666087168
0	1863292	4766.398536687786	0.03149259233
0	1863361	4766.618317080744	0.026938058869
0	1863650	4767.464568083056	0.02340144008
0	1865640	4773.150129095269	0.028193370143
0	1866260	4774.428047180117	0.035588619521
0	1867265	4777.22399725843	0.029252972048
0	1867388	4777.450347507079	0.018576436475
0	1869904	4783.102601629602	0.025975394279
0	1872042	4788.740159161164	0.032073798481
0	1872125	4789.087113770626	0.052627834293
0	1873491	4793.053845741354	0.487421621636
0	1876842	4801.751586504566	0.026389120873
0	1877060	4802.275770875989	0.028310052948
0	1877561	4804.404362765705	0.035527688465
0	1878148	4805.726114801033	0.022155698476
0	1879340	4808.839916490946	0.024303208971
0	1880280	4812.324911892299	0.650518065605
0	1880924	4813.963572954031	0.023150072885
0	1881531	4815.480771859299	0.020048036627
0	1882667	4819.010001537713	0.040270737246
0	1882853	4819.631225413975	0.027378550671
0	1883984	4822.235134687143	0.019230134975
0	1884628	4823.731285705035	0.190607478607
0	1884842	4824.039881954227	0.025878569942
0	1885283	4825.338485734331	0.051462393758
0	1887170	4829.192710791753	0.019654213734
0	1887946	4831.6508953045	0.025537553745
0	1889914	4836.044992376361	0.217562813625
0	1890653	4838.106315927355	0.026853550723
0	1890764	4838.434812444067	0.024640096015
0	1890864	4838.727428334997	0.027763855686
0	1890974	4839.050907370411	0.035599810283
0	1892830	4843.708914210208	0.026909764739
0	1893170	4844.927495553866	0.020797259294
0	1895068	4850.881372042642	0.313975872229
0	1896745	4855.651146470297	0.056907359775
0	1898118	4858.873413624729	0.033028809598
0	1898264	4859.213023474434	0.0435018784
0	1900053	4864.881809794308	0.019292435198
0	1901574	4869.136920288506	0.025831921141
0	1901842	4869.900152911848	0.032598863328
0	1902823	4872.696467461258	0.024075296358
0	1903799	4874.44281532905	0.021033218053
0	1904609	4876.39725268608	0.037240357482
0	1904908	4877.2626322846	0.027917658558
0	1905036	4877.502175904047	0.031546525344
0	1905569	4878.772343411361	0.025950275279
0	1906167	4880.240916851605	0.459953689007
0	1906446	4880.538456057522	0.025309532764
[...]
4	2126691	5450.464591859943	0.666630603034
4	2128227	5454.417421188733	0.176664470359
4	2131339	5461.579547511693	0.093874976809
4	2132647	5465.012733440484	0.190673085077
4	2133579	5467.15956084788	0.169533224516
4	2134160	5468.211262278148	0.343531065595
4	2134619	5469.527306454746	0.10950995004
4	2136032	5473.006059993289	0.417907438247
4	2136215	5473.403583727509	0.263475768814
4	2136585	5474.61559376303	0.243798624601
4	2138379	5478.87668133973	0.130900949164
4	2139326	5481.731100564784	0.460174894766
4	2139924	5483.314752137242	0.210871960623
4	2140092	5483.580489260669	0.215790995099
4	2141586	5487.158381819224	0.126922920452
4	2142254	5488.968740080531	0.047977956244
4	2142507	5489.310496865785	0.271844086049
4	2142715	5489.810027058852	0.23575976835
4	2144330	5493.217551460235	0.125720249043
4	2145462	5496.378151358508	0.113324132008
4	2145558	5496.49153105604	0.51830365488
4	2146699	5499.386904176846	0.362978841848
4	2147018	5500.498171091877	0.202728562555
4	2147447	5501.465619166473	0.302338734596
4	2148902	5505.525619625503	0.101019205298
4	2148935	5505.588837901165	0.28643768725
4	2148989	5505.809629607644	0.216390448889
4	2150738	5509.589049251532	0.194619489934
4	2152119	5513.127026001131	0.291876194066
4	2153177	5515.663787449873	0.163796632688
4	2153186	5515.672745591065	0.210053623272
4	2153903	5517.837763443566	0.221644680254
4	2155016	5520.575414786029	0.23919756178
4	2155574	5521.687956240282	0.383521041601
4	2157114	5526.132897922489	0.700218126282
4	2157200	5526.403981641054	0.001183294605
4	2157303	5526.589280825696	0.121054021401
4	2157658	5527.655181146746	0.201202333867
4	2160803	5535.951728868557	0.234538419794
4	2161382	5537.655975384968	0.153007806708
4	2161509	5537.958961160424	0.093718591723
4	2162872	5542.256274491382	0.613075968366
4	2162883	5542.262335846609	0.586171814176
4	2163246	5543.050349654392	0.318412873812
4	2163883	5544.737767806138	0.231737359301
4	2166569	5551.188310433665	0.201256467713
4	2167003	5551.936926873194	0.373477487035
4	2167007	5551.942668932456	0.388027063915
4	2168438	5555.540460297385	0.237462543043
4	2168816	5556.84209619596	0.132536939631
4	2168840	5556.89583907041	0.331458775056
4	2171092	5562.750172361123	0.136558300183
4	2172117	5565.274694517692	0.217439514844
4	2172374	5565.87035192845	0.10431908944
4	2172900	5567.061523876685	0.072396405349
4	2173362	5568.406273763825	0.102278570225
4	2173706	5569.659931689049	0.149374185392
4	2174147	5570.559321035967	0.409361529682
4	2175587	5574.710682107535	0.199686245449
4	2176569	5576.853850248355	8.10807211402
4	2177406	5578.83432844388	0.125733627349
4	2177720	5579.880036104227	0.164452319636
4	2178252	5580.776248159057	0.112799874148
4	2179350	5584.339264411767	0.149287106145
4	2179547	5584.757336878293	0.16239248465
4	2180061	5586.025176116484	0.485991995254
4	2180476	5586.846595241125	0.272890562483
4	2181007	5588.081541925993	0.301614726641
4	2181434	5589.127899148655	0.19209142304
4	2181785	5590.5050390781	0.134719635028
4	2182056	5591.452168361824	0.122782481265
4	2182072	5591.503257171673	0.19356774301
4	2182473	5592.719791912284	0.111357491501
4	2184665	5598.329583151171	0.361259462896
4	2185795	5600.748565137117	0.242677221359
4	2186101	5601.750440715196	0.13087272818
4	2186410	5602.478181578651	0.082726040659
4	2190076	5610.434042011887	0.359043133364
4	2191265	5614.016421452261	0.17216465753
4	2191927	5615.677463068921	0.140632471469
4	2192484	5617.063533934307	0.2643391469
4	2193100	5618.324224359066	0.064409691293
4	2193484	5619.324948656513	0.122488181046
4	2193522	5619.422140308681	0.178098681568
4	2194463	5622.218594141445	0.175549992613
4	2195608	5625.644119812578	0.278091241327
4	2195680	5625.759317870152	0.317863503532
4	2196167	5626.850118045977	0.676299846303
4	2197741	5630.074429803981	0.227577732567
4	2198763	5632.173440221047	0.158093791229
4	2198972	5632.680401771294	0.098180842874
4	2199458	5634.259199545257	0.611366791842
4	2200426	5636.506310021818	0.326254100544
4	2200429	5636.508107731882	0.180410076981
4	2201535	5639.185043298683	0.174280356025
4	2202611	5642.019796084277	0.053055801864
4	2203611	5644.390690749418	0.108817642271
4	2205373	5648.320905801295	0.549917047817
4	2207259	5653.467018996885	0.2111101592
4	2208896	5658.363316940363	0.263275300498
4	2209272	5659.19259207492	0.145894394749
4	2209748	5660.638552141659	0.247001667633
4	2210326	5662.088788522499	0.215001014737
4	2210510	5662.548561273095	0.069161642098
4	2210753	5663.221772540443	0.15629037591
4	2211740	5665.261227759166	0.305011028516
4	2212044	5665.795425830839	0.26361052332
4	2212732	5667.570379292343	0.217855695474
4	2213495	5669.205119715447	0.246178366068
4	2214777	5671.938996564745	0.178910102276
4	2215150	5673.395358241607	0.188330098942
4	2215729	5674.641997934441	0.290396534455
4	2215920	5675.082577329827	0.17540186849
4	2216934	5677.482356838346	0.186801417027
4	2217490	5679.250845331888	0.071118807661
4	2217512	5679.264200188197	0.209165384448
4	2218539	5682.006458398465	0.169975017486
4	2219328	5683.771165272471	0.34657387617
4	2219527	5684.417201064218	0.131540758822
4	2220553	5687.078861781482	0.18273508131
4	2221425	5689.450910515759	0.241062316475
4	2223018	5693.724278553836	0.176177408567
4	2223613	5695.053576934869	0.4267177601
4	2225801	5699.922149734107	0.121762038348
4	2225828	5699.973375592759	0.18039692332
4	2226555	5702.017096345829	0.527470865847
4	2227145	5702.855463691486	0.045517256278
4	2227328	5703.423972699358	0.084154533664
4	2227931	5704.896427823775	0.071282595496
4	2228423	5705.979477216834	0.313362095626
4	2228525	5706.093317303788	0.272227920686
4	2230066	5710.60385717927	0.05018902596
4	2232773	5716.556537927667	0.15011297915
4	2234078	5719.609399926657	0.347542535613
4	2234194	5719.86735172602	0.179427062795
4	2234855	5721.395990405883	0.235796793192
4	2236928	5726.322217944879	0.553011874574
4	2239065	5732.051105671956	0.733019301455
4	2240266	5735.86554584338	0.818921810558
4	2240784	5737.038969784353	0.305383741543
4	2242274	5741.095587880059	0.303467057481
4	2242620	5741.75116441382	0.185232276365
4	2243593	5744.404886721962	0.184237331821
4	2244438	5746.331659411895	0.180124523262
4	2244530	5746.525989909911	0.378116936849
4	2244817	5747.172616659749	0.249560665339
4	2247887	5754.126258716522	0.271546637399
4	2248491	5755.87582044368	0.154540187726
4	2250109	5759.171378907203	0.109049965369
4	2251486	5762.066286074554	0.191982481274
4	2252184	5763.878659361423	0.211327838899
4	2253179	5766.511824736625	0.141760598795
4	2253816	5768.167698149489	0.491539389542
4	2254092	5768.949704265773	0.169765818222
4	2254571	5770.146399676069	0.104331219076
4	2255805	5772.876418437409	0.173229161464
4	2256289	5774.081292779455	0.167064180794
4	2256996	5776.088455052656	0.326147894981
4	2257392	5777.132949624054	0.165273823783
4	2257522	5777.575720696285	0.161633501143
4	2257624	5777.815221674103	0.203666341196
4	2258885	5781.618480562083	0.354146594464
4	2261677	5789.752517834826	0.198984574331
4	2262003	5790.475984204109	0.159542940492
4	2262921	5792.473391291412	0.150094420933
4	2263105	5792.876690911483	0.154660920763
4	2264200	5795.271193748432	0.048820837088
4	2265325	5798.167802349914	0.257675065874
4	2265746	5798.849841846782	0.203204703416
4	2267569	5803.15686161163	0.193643127022
4	2268225	5805.054303075369	0.88941812377
4	2269487	5809.336339603512	1.533523690615
4	2270363	5811.434704805454	0.141844917382
4	2270662	5812.079557258775	0.172311956329
4	2271015	5812.840446962034	0.168123864992
4	2271971	5815.208754510147	0.192607252522
4	2272541	5817.055562456423	0.063787721462
4	2272899	5818.340923312499	0.433059855272
4	2273101	5819.441109584759	0.095530645013
4	2273557	5821.554760891773	1.612799942491
4	2273579	5821.56708884294	2.464068898896
4	2273790	5822.032868105421	3.158556017328
4	2273897	5822.459799221137	0.155850341282
4	2274121	5823.207853946575	0.038057805799
4	2274794	5824.753761443307	0.681880193387
4	2275189	5825.561335993666	0.319349631418
4	2275586	5826.860038629749	0.072546823391
4	2276731	5829.453057463371	0.501244350746
4	2277318	5830.579049420038	1.010686893687
4	2277376	5830.656362854267	0.674135934427
4	2279128	5835.89736682061	0.485451906596
4	2279207	5836.040666468096	0.272063154632
4	2279605	5836.964307465204	0.18180815591
4	2279776	5837.532729959393	0.168739769916
4	2280488	5839.691637395495	0.198326183874
4	2281157	5841.328996380353	0.255107818674
4	2283244	5846.373058976333	0.165416877823
4	2283253	5846.40085537499	0.132391739447
4	2284928	5850.164924011174	0.213888607496
4	2285037	5850.415770433105	0.10482163305
4	2286502	5854.74346173683	0.669762101784
4	2287525	5857.866859867946	0.232299068279
4	2288340	5859.527802204867	0.058089744286
4	2289128	5861.297270762263	0.059077626296
4	2290237	5864.727009636679	0.700476889129
4	2290857	5866.610780364698	0.162431663585
4	2290924	5866.682581783275	0.284653101285
4	2292899	5870.852935185644	0.52068620547
4	2294331	5874.926323136023	0.185747374014
4	2295105	5877.777807700838	0.055675740073
4	2295128	5877.800201193739	0.31582575587
4	2295826	5879.992514651072	0.119742490777
4	2299605	5890.04374012907	0.226948005469
4	2300098	5890.822169858696	0.409284619032
4	2301048	5893.355803598111	0.163836183639
4	2302187	5895.774404423706	0.192787984908
4	2302503	5896.611513793875	0.221404930244
4	2303224	5898.761465311745	0.265555161166
4	2303835	5899.721262623654	0.110743129567
4	2304312	5901.905288229194	0.052390425843
4	2304526	5902.734966333375	0.159192847838
4	2304911	5903.826125558539	0.181342593257
4	2305366	5904.881312607018	0.162266575723
4	2307260	5910.110683067549	0.104769305074
4	2307400	5910.345766394805	0.230130485463
4	2308293	5912.355479336647	0.159276955689
4	2308974	5914.135080104496	0.085642174323
4	2309451	5915.044646879863	0.348489136119
4	2310175	5916.924251682001	0.133712161205
4	2310739	5918.227559435545	0.221335055299
4	2311587	5920.09731418476	0.239322632934
4	2312898	5923.240940033159	0.265892657269
4	2313836	5925.229077286127	0.193814028843
4	2314634	5926.70628096604	0.261206284463
4	2315530	5928.822687457465	0.075012211113
4	2317926	5935.145671757641	0.133665153677
4	2318989	5938.385070151658	0.368776480643
4	2319683	5940.359207878798	0.383276575992
4	2320084	5941.669669237368	0.21017556791
4	2320736	5943.709246306801	0.408373704739
4	2320989	5944.386230357844	0.191578834107
4	2321454	5945.709432811632	0.377912945424
4	2321902	5946.678170806896	0.241452739968
4	2322302	5947.761124301778	0.158730591823
4	2322859	5948.87176938963	0.099873524575
4	2323713	5951.182070444447	0.166590693829
4	2323738	5951.24612668197	0.135103875281
4	2325855	5957.407467529903	0.714835680541
4	2325862	5957.410800225447	0.294223472361
4	2325868	5957.418240526401	0.323185071003
4	2326289	5959.159197164361	0.071470986426
4	2327530	5961.279699922877	0.265843788342
4	2327968	5962.586883121812	0.16894608892
4	2328380	5963.605207198122	0.161505998387
4	2329558	5966.370559483528	0.137172562321
4	2329938	5966.934553484947	0.26653616884
4	2330243	5967.808156344339	0.089798631734
4	2330547	5968.812325061068	0.241638964083
4	2330867	5969.98005537678	0.14850849184
4	2331026	5970.501337014185	0.274138652299
4	2331073	5970.631535176127	0.420335675748
4	2333210	5977.303370044826	0.556428625562
4	2333519	5978.389020645114	0.142345366603
4	2334597	5980.754564428092	0.050390582849
4	2336640	5986.064708198273	0.2223143082
4	2338706	5990.181827586398	0.286323171545
4	2339462	5992.334613520467	0.176425893822
4	2341147	5997.181624260117	0.249253473891
4	2341724	5998.906109374581	0.425212089756
4	2342811	6002.055000974948	0.338855955017
4	2343479	6003.593565719565	0.442501658724
4	2344355	6006.632847913942	0.09964630719
4	2345178	6008.865928915438	0.439282823207
4	2345414	6009.540036422997	0.15011885055
4	2345693	6010.331544304908	0.263105437575
4	2347063	6013.32341937109	0.180762585575
4	2347384	6014.044467513972	0.105659515477
4	2348890	6017.618337145912	0.313009551371
4	2351030	6022.475600342746	0.182959598665
4	2352184	6025.639687542591	0.387895635091
4	2352292	6025.727265305201	0.886402279661
4	2353609	6029.084335712753	0.239974082114
4	2354036	6030.231000071466	0.169148410104
4	2354731	6032.014853684205	0.301352656469
4	2354906	6032.650143213183	0.145730591555
4	2355208	6033.827598965078	0.264499823143
4	2357034	6037.584316074958	0.187182236634
4	2357453	6038.856917828737	0.381772472761
4	2357718	6039.595684831623	0.150571647816
4	2358460	6042.070615362025	0.157082685333
4	2358505	6042.164024151835	0.265356488488
4	2359283	6044.469675271462	0.983831343701
4	2360573	6047.793188294324	0.169398777875
4	2361399	6049.916861999963	0.261103785838
4	2362082	6051.892828523793	0.350511327183
4	2362107	6051.911043843851	0.132461726871
4	2362852	6053.543385128134	0.224185004005
4	2363214	6054.255022960957	0.275118588626
4	2364237	6057.217913634051	1.072925116845
4	2364587	6058.459215595683	2.466978215295
4	2364895	6059.175621009034	0.328556687799
4	2366057	6061.383195022995	0.567557960872
4	2367047	6063.900198322936	0.381983285418
4	2368076	6066.848958620484	1.541840666487
4	2368149	6067.136532552754	0.120899029085
4	2369179	6069.057932598727	0.133417894321
4	2371288	6073.718932997147	0.117848690737
4	2372043	6075.096279848915	0.396425139894
4	2372365	6076.744593248662	0.255334310448
4	2372702	6077.520051581833	0.116783061563
4	2373151	6078.779791733079	0.576630647168
4	2374193	6081.545092472172	0.154588200558
4	2375017	6083.023042212718	0.229391480949
4	2375387	6083.931071950245	0.191442691278
4	2376981	6089.816904966688	1.42481803885
4	2376990	6089.826186254808	1.138834854451
4	2378458	6093.087777246045	0.19137986047
4	2379480	6095.687868713561	0.373597799173
4	2380014	6097.907275810664	0.468999462006
4	2380947	6099.692183330326	0.077722699781
4	2381614	6101.637984175507	0.202436992406
4	2382203	6103.029589102536	0.137948327436
4	2382969	6105.122331494453	0.121735010609
4	2383268	6105.737728466256	0.179501291441
4	2384321	6108.644273970138	0.258720116578
4	2384457	6108.90968671547	0.193544455061
4	2384819	6109.939087501901	0.248382393836
4	2384962	6110.212248183706	0.232136638625
4	2387336	6115.093838264666	0.219091913376
4	2387634	6115.673619162856	0.122991828308
4	2388388	6117.438418158967	0.115650762222
4	2388496	6117.939400457578	0.071441540379
4	2389573	6120.560137241079	0.425584426918
4	2390722	6123.044541018262	0.292114974657
4	2391557	6125.078449051047	0.296175089695
4	2391664	6125.319498389856	0.213814977992
4	2392565	6127.26006501291	0.143746512806
4	2392838	6128.112062215009	0.288513663183
4	2392912	6128.44118230817	0.080468489583
4	2398380	6141.621309484405	0.152703996694
4	2400933	6147.061397672167	0.219691715509
4	2402446	6150.893880495435	0.200082202376
4	2403062	6152.430880489061	0.156614280695
4	2403329	6152.918186969919	0.298401879177
4	2405125	6157.825790321668	0.158949839008
4	2405466	6159.204230455399	0.391409829397
4	2405539	6159.51052329874	0.70775486402
4	2405595	6159.65556457592	0.123225280754
4	2406096	6160.901776594976	0.218385908496
4	2406859	6163.09579880642	0.223769519734
4	2407646	6165.062891697872	0.150189354133
4	2407928	6166.278507178982	0.160354750928
4	2408164	6167.028575233156	0.154244622994
4	2409222	6169.261558799056	0.519179160864
4	2409829	6171.044954739922	0.142619212534
4	2413513	6178.906484029725	4.227033903162
4	2414082	6180.009537459395	0.093221101404
4	2414094	6180.035772840712	0.080970865215
4	2414774	6181.72148967828	0.116123211685
4	2415173	6183.2064368463	0.377750014821
4	2415181	6183.214017499333	0.484563179986
4	2415382	6183.788568270267	0.061438305228
4	2418079	6189.809825204535	0.374230067795
4	2419513	6193.738545150114	0.105108946653
4	2420798	6196.032382462739	0.244061778226
4	2421033	6196.841815589035	0.144726891775
4	2422709	6201.923194060949	0.116729271847
4	2423049	6202.648250447836	0.433862116396
4	2423620	6204.888047604678	0.14645260748
4	2424250	6206.057530965688	0.047369112715
4	2424699	6208.028397031424	0.196716398553
4	2424741	6208.145996720654	0.138505356852
4	2424821	6208.422759897201	0.154835438485
4	2425752	6211.097886506564	0.386028444623
4	2426871	6213.789307925529	0.58771610945
4	2427003	6214.230606631869	0.248332647919
4	2428291	6218.167311317478	0.264682191948
4	2428534	6218.732347729462	0.079751474101
4	2428806	6219.458880709876	0.212766228055
4	2429854	6221.960046530329	0.362088036233
4	2430000	6222.174306837504	0.134020106247
4	2431574	6226.264692908402	0.504183515115
4	2431936	6226.986773198424	0.133418367433
4	2433202	6229.941874564787	0.309406833073
4	2433480	6230.4082867167	0.352423169147
4	2434059	6232.364991693966	0.264833401188
4	2435707	6236.211083501418	0.373147063926
4	2437516	6240.929338156946	0.227633926077
4	2437972	6241.779438885999	0.307021870719
4	2438622	6243.743278476021	0.08068840953
4	2439933	6247.588469429082	0.20863060012
4	2442191	6253.653768354961	0.134814846886
4	2442411	6254.256922514915	0.363369564531
4	2443019	6255.712999128906	0.170143394738
4	2443994	6258.631985899704	0.208921703046
4	2445658	6262.485109483266	0.465937869173
4	2446628	6264.819314644789	0.064573037815
4	2447760	6267.641432413264	0.193418018675
4	2447935	6267.890665833364	0.247816350792
4	2448245	6268.869787438884	0.13829469086
4	2449773	6272.821436225889	0.615138638547
4	2449902	6273.165490448071	0.085915075763
4	2450853	6275.630601027213	0.160512403408
4	2452702	6280.861480778698	0.553010197974
4	2453599	6284.057865137253	0.222513625977
4	2453775	6284.604952697667	0.542961796986
4	2454577	6286.688844821085	0.069004501296
4	2454971	6287.153350870425	0.56261776158
4	2455229	6287.79147933425	0.137153998724
4	2457237	6292.918378971192	0.050795748554
4	2457458	6293.682535330037	0.625857525132
4	2459004	6298.003073004563	0.265288720937
4	2459716	6300.354510775341	0.157862555337
4	2459826	6300.711145722678	0.123358732636
4	2460261	6301.979369251301	0.179201810907
4	2460372	6302.204350773149	0.059862792652
4	2461555	6304.64744544681	0.143573493006
4	2463376	6308.5545797282	0.119284339683
4	2465964	6314.302220914668	0.679899962114
4	2466209	6314.673935385905	0.217132040779
4	2466417	6315.124149205739	0.147090093525
4	2467771	6318.003342157316	0.100632572667
4	2468212	6318.804671501451	0.431157980851
4	2468666	6320.356162361152	0.165882890461
4	2468766	6320.729086338597	0.233039783229
4	2470578	6324.590573488994	0.393714442518
4	2471426	6326.50624385859	0.134752448622
4	2474286	6334.913091463084	0.093869681084
4	2475909	6339.358322050632	0.587740344104
4	2477508	6342.939839361864	0.458763940027
4	2478379	6344.99395438427	0.169552875668
4	2478598	6345.338170798548	0.488651955503
4	2478715	6345.543896745372	0.172975365766
4	2479887	6348.896373267938	0.12917588892
4	2480652	6351.062719705974	0.077337776383
4	2481952	6355.143081557464	0.414238121548
4	2482547	6356.493255406675	0.314082904562
4	2483474	6358.787246836857	0.279197099905
4	2483861	6359.187142788557	0.707995110571
4	2485135	6362.076135947309	0.31115542137
4	2485546	6363.499601036574	0.184984417465
4	2486699	6367.063143558288	0.385049609715
4	2487202	6368.209844184852	0.277820187936
4	2488046	6370.744781011148	0.147201423164
4	2488598	6371.863589768189	0.490502705623
4	2489068	6372.877498712015	0.19184932318
4	2489155	6373.023570631954	0.193973583165
4	2489273	6373.136470418496	0.104824965505
4	2490002	6375.022025114217	0.138273743702
4	2490908	6376.814788101642	0.35643405117
4	2492501	6380.843266899123	0.309901825074
4	2492680	6381.517218281003	0.188655112294
4	2494073	6385.489922186942	0.237713230876
4	2495200	6388.582447689628	0.095911205771
4	2496436	6392.022509866439	0.108417049674
4	2497344	6394.038700549565	0.202971067261
4	2497583	6395.049371596941	0.170867539196
4	2497648	6395.142775137609	0.117076919743
4	2498774	6398.464847229542	0.050787196338
4	2499058	6399.229425981686	0.21846578529
2	2500110	6402.926361061997	0.576469483324
2	2500447	6403.261033204066	0.07094408407
2	2500632	6403.484759148821	0.064627174127
3	2500005	6402.627802281015	0.070964742473
3	2500365	6403.222565106019	0.338663622135
4	2500230	6403.098476539174	0.195863407843
4	2500536	6403.359218687128	0.5804465171

