version 2
run General-0-20220701-21:45:01-1992
attr configname General
attr datetime 20220701-21:45:01
attr experiment General
attr inifile omnetpp.ini
attr iterationvars ""
attr iterationvarsf ""
attr measurement ""
attr network Raft
attr processid 1992
attr repetition 0
attr replication #0
attr resultdir results
attr runnumber 0
attr seedset 0
param Raft.numServers 5
param Raft.numClients 2
param Raft.client[*].numServers 5
param Raft.client[*].sendCommandTimeout 0.9s
param Raft.statsCollector.numServers 5
param Raft.server[*].numServers 5
param Raft.server[*].canFail true

vector 0 Raft.statsCollector consensusTime:vector ETV
attr interpolationmode linear
attr title "Time required to reach consensus on a new leader, since network is leaderless, vector"
attr unit s
vector 1 Raft.statsCollector consensusMessages:vector ETV
attr interpolationmode linear
attr title "Number of messages exchanged on the network to reach consensus among servers, vector"
vector 2 Raft.client[0] commandResponseTime:vector ETV
attr interpolationmode linear
attr title "Total response time of client request, vector"
attr unit s
vector 3 Raft.client[1] commandResponseTime:vector ETV
attr interpolationmode linear
attr title "Total response time of client request, vector"
attr unit s
0	30	0.453926305846	0.453926305846
0	200	2.518195450087	0.015488135024
0	278	4.344283426337	1.393901349933
0	360	5.301237610688	0.015488135024
0	629	10.002011666116	0.89444927797
0	719	11.921466189294	0.015488135024
0	815	14.627031545107	1.817312741026
0	906	15.767016859889	0.452054389032
0	969	16.887390238107	0.015488135024
0	1033	18.493004232998	0.932250580845
0	1115	19.848799659387	0.015488135024
0	1164	20.999867954427	0.015488135024
0	1576	27.779277978509	0.015488135024
0	1652	30.148557880241	1.903960718496
0	1849	33.028204844546	0.467292395259
0	1955	35.116690052597	0.015488135024
0	2099	37.257100973728	0.015488135024
0	2270	39.932977884854	0.015488135024
0	2385	41.889793536555	0.433875143786
0	2559	44.392289806541	0.015488135024
0	2676	47.561560951711	1.34343667445
0	2841	49.977584378879	0.015488135024
0	2980	51.923431671253	0.015488135024
0	3122	53.94181163272	0.015488135024
0	3330	56.281463181526	0.015488135024
0	3396	56.767854862401	0.015488135024
0	3426	57.404677000221	0.015488135024
0	3520	59.400542089624	1.286758215567
0	3601	60.336275173331	0.015488135024
0	3695	62.154398238011	0.015488135024
0	3808	64.216135478526	0.015488135024
0	3866	65.616020116743	0.957906333616
0	3977	67.407353803639	0.015488135024
0	4044	68.758608755943	0.015488135024
0	4191	71.344492109697	0.015488135024
0	4218	71.770790417116	0.015488135024
0	4364	74.135866518326	0.015488135024
0	4459	75.283756492667	0.015488135024
0	4498	76.149949634212	0.015488135024
0	4660	78.616094582667	0.015488135024
0	4836	81.469936602494	0.015488135024
0	4957	83.097731209399	0.015488135024
0	5169	86.172903546239	0.015488135024
0	5452	90.233445585021	0.015488135024
0	5515	91.782401824787	0.905211138123
0	5732	94.316389209707	0.015488135024
0	5820	96.04607018321	0.45187755665
0	5873	96.769196335684	0.015488135024
0	5897	97.212447526532	0.015488135024
0	5983	98.764850794576	0.015488135024
0	6064	100.302598254367	0.015488135024
0	6308	103.858826708081	0.430030255697
0	6389	105.252042738407	0.944994599864
0	6570	107.784529228988	0.015488135024
0	6751	110.550885221761	0.467874579691
0	6809	111.694116860656	0.015488135024
0	6926	114.163748171477	0.015488135024
0	7133	118.384009170704	1.363370327328
0	7314	120.491678591205	0.015488135024
0	7416	122.568714330679	0.485420441815
0	7490	123.717828114049	0.015488135024
0	7550	124.779621541231	0.015488135024
0	7643	126.318478446501	0.015488135024
0	7759	128.35499484971	0.019774653665
0	7845	130.28341509146	1.28881115059
0	8012	133.19172013421	0.015488135024
0	8115	135.433734171623	0.015488135024
0	8189	136.563635498852	0.015488135024
0	8303	138.546525575185	0.888960791149
0	8418	140.60964950194	0.015488135024
0	8544	143.034941059719	0.461198846741
0	8584	143.961001306584	0.440405079724
0	8708	146.048823912453	0.015488135024
0	8770	147.676202837077	0.897965175614
0	8796	148.134305846182	0.015488135024
0	8919	150.137788921238	0.015488135024
0	9164	153.204048096953	0.015488135024
0	9217	153.716900383525	0.015488135024
0	9263	154.657642287816	0.015488135024
0	9287	155.114839592702	0.015488135024
0	9391	156.680923767271	0.015488135024
0	9491	158.396830222	0.015488135024
0	9801	162.620023651695	0.015488135024
0	9848	163.263490357409	0.015488135024
0	9965	165.329720645815	0.015488135024
0	10127	167.070425733243	0.015488135024
0	10486	173.087180867437	0.450133371378
0	10563	174.186094661137	0.440788622738
0	10655	175.556149492261	0.015488135024
0	10795	177.390267109954	0.015488135024
0	10854	178.065565414497	0.015488135024
0	10910	179.147957197594	0.452120334005
0	10943	179.812055641234	0.015488135024
0	11051	181.380695229964	0.015488135024
0	11111	182.090536704809	0.015488135024
0	11261	185.567841659943	1.875357854905
0	11287	186.049081888974	0.015488135024
0	11397	187.599891125604	0.015488135024
0	11598	191.203609513712	1.336230300673
0	11652	192.122918706947	0.015488135024
0	11719	193.153294979633	0.015488135024
0	11853	195.402269453199	0.015488135024
0	11939	196.515891316493	0.015488135024
0	12030	198.066692645925	0.015488135024
0	12147	200.031076054213	0.015488135024
0	12321	202.297859931014	0.015488135024
0	12456	204.328016907896	0.015488135024
0	12493	205.21992925812	0.481827259555
0	12547	206.088024118523	0.015488135024
0	12637	207.672055583772	0.015488135024
0	12950	212.253950340512	0.015488135024
0	13110	215.448726025124	0.459462165601
0	13210	217.036989923223	0.015488135024
0	13365	219.530172317693	0.015488135024
0	13441	220.833317450736	0.015488135024
0	13576	222.887156175754	0.4422598738
0	13647	224.250378246749	0.483208981088
0	13797	226.95381047207	0.015488135024
0	14026	230.354312178245	0.464655399021
0	14060	231.240676808485	0.439391701298
0	14082	231.68600711435	0.015488135024
0	14197	233.705681621124	0.453564473057
0	14302	235.26558789041	0.015488135024
0	14386	236.422281738693	0.015488135024
0	14466	238.259819862373	0.945141342517
0	14740	243.028967383898	0.495189676994
0	14848	244.630830335211	0.015488135024
0	14984	246.283912344027	0.451761028825
0	15010	246.718575050806	0.015488135024
0	15158	248.94830259691	0.015488135024
0	15202	249.520393673607	0.015488135024
0	15326	251.761468735802	0.015488135024
0	15425	253.740922159318	0.48897149414
0	15756	257.7913770888	0.015488135024
0	15869	259.653145710019	0.015488135024
0	15992	261.687486846096	0.015488135024
0	16098	263.412852692156	0.865886698456
0	16158	264.292676788855	0.015488135024
0	16221	265.177343355011	0.015488135024
0	16273	266.133415445625	0.015488135024
0	16332	267.004971053498	0.015488135024
0	16494	269.527815609857	0.015488135024
0	16608	272.251335894974	1.754854921697
0	16634	272.677913810506	0.015488135024
0	16764	274.493264539666	0.015488135024
0	16814	274.951969335239	0.015488135024
0	16898	276.308885266783	0.015488135024
0	16958	277.180232984038	0.015488135024
0	17058	279.197410269958	0.438296107553
0	17213	281.896351596542	0.015488135024
0	17506	286.776148943468	0.015488135024
0	17570	288.398942238983	0.950357493154
0	17814	292.03284924073	0.015488135024
0	17929	294.240110776141	1.293569782262
0	18079	296.704509052821	0.015488135024
0	18115	297.650412482491	0.498027264468
0	18377	302.175420777412	0.015488135024
0	18566	304.551961296336	0.015488135024
0	18678	306.767705350469	0.015488135024
0	18837	309.599767016253	0.015488135024
0	19373	317.62763464972	0.015488135024
0	19459	319.354904770557	0.884907315628
0	19491	319.799178751802	0.015488135024
0	19614	321.587924491336	0.015488135024
0	19709	323.540270150853	1.319750643641
0	19737	323.983594146028	0.015488135024
0	19891	325.763831344336	0.015488135024
0	20175	330.070654424882	0.015488135024
0	20296	332.136811577156	0.48252837537
0	20338	332.592332429603	0.015488135024
0	20459	334.315770720134	0.015488135024
0	20690	339.247555445049	2.15387948866
0	20859	341.429155584026	0.015488135024
0	20981	343.636234160721	0.015488135024
0	21019	344.516015716259	0.015488135024
0	21061	345.426163970043	0.458057183448
0	21235	348.322501852521	0.015488135024
0	21416	351.284415387975	0.015488135024
0	21716	356.915597227922	0.015488135024
0	21776	357.794482312954	0.015488135024
0	21890	360.350471438979	0.448075534359
0	21970	361.471156117089	0.436154938421
0	22059	363.199170528297	0.015488135024
0	22190	365.207935241894	0.015488135024
0	22311	367.487879231685	0.453361679686
0	22488	370.485646433604	0.015488135024
0	22666	372.870933136147	0.015488135024
0	22709	373.524790025307	0.015488135024
0	22770	374.850519813486	0.424522331219
0	22850	376.613966424991	0.488159649728
0	22909	377.660874105181	0.015488135024
0	23080	379.922259811938	0.015488135024
0	23112	380.557266159494	0.015488135024
0	23207	382.32345942905	0.435701781769
0	23400	385.788466991266	0.015488135024
0	23529	388.472406514461	1.357331979137
0	23612	389.800654717822	0.015488135024
0	23701	391.316206223492	0.015488135024
0	23790	393.153006231505	0.926113923501
0	23928	395.156818354097	0.437113856666
0	23971	396.071382115214	0.015488135024
0	24213	401.111270117117	3.085134835384
0	24462	405.950656566466	0.440192872218
0	24524	407.08151460474	0.015488135024
0	24614	408.771507024953	0.463904233418
0	24805	411.255246147959	0.015488135024
0	24936	413.488957550393	0.015488135024
0	25079	415.676447171934	0.015488135024
0	25147	416.586610926707	0.015488135024
0	25251	419.072901951661	1.345803439108
0	25575	424.207247578971	0.015488135024
0	25714	426.456556833798	0.015488135024
0	25826	428.246451084859	0.015488135024
0	25888	428.92052371313	0.015488135024
0	26018	431.160424445312	0.015488135024
0	26158	433.543759377562	0.015488135024
0	26355	436.227191603737	0.015488135024
0	26509	439.560151580953	2.16917917191
0	26565	440.370393404616	0.015488135024
0	26598	440.980857612581	0.015488135024
0	26699	442.962035641022	0.44359935492
0	26807	444.722269382218	0.015488135024
0	26862	445.635564601127	0.015488135024
0	26961	447.409223627634	0.015488135024
0	27126	450.087223448464	0.015488135024
0	27218	452.174227928604	0.472777242751
0	27272	453.35685385728	0.4473985635
0	27357	454.71168272015	0.015488135024
0	27421	455.76898638871	0.015488135024
0	27529	457.548429431857	0.015488135024
0	27638	459.764242367202	1.337191281796
0	27823	462.434031255604	0.015488135024
0	27917	464.180843469051	0.015488135024
0	28005	465.942482386874	0.91407925077
0	28070	467.05403334228	0.015488135024
0	28252	470.179396819336	0.434684179399
0	28327	471.059168533028	0.015488135024
0	28414	473.040990813012	0.9118010056
0	28672	477.601269668082	0.470345043975
0	28753	479.134863602521	0.015488135024
0	28877	481.530663207806	0.015488135024
0	28955	482.61159873603	0.015488135024
0	29033	483.809751597729	0.015488135024
0	29072	484.454536968641	0.015488135024
0	29139	485.803203460875	0.015488135024
0	29208	486.855555527622	0.015488135024
0	29306	488.872810588373	0.460999031506
0	29389	490.267424978727	0.015488135024
0	29572	492.998436026792	0.015488135024
0	29893	498.822853649708	1.377247224635
0	30108	502.942583072999	1.895534121805
0	30449	507.695180712862	0.015488135024
0	30552	509.562200023225	0.015488135024
0	30661	511.340320229454	0.015488135024
0	30916	515.00089262603	0.015488135024
0	30957	515.884005944945	0.015488135024
0	31180	518.996915172966	0.447314475502
0	31260	520.542634384215	0.434944921431
0	31425	522.579644919536	0.015488135024
0	31520	525.135076526159	0.898226621515
0	31627	526.974186851589	0.015488135024
0	31829	530.054229918443	0.015488135024
0	32018	533.44037338063	0.015488135024
0	32059	534.209091808851	0.015488135024
0	32102	535.501612723919	0.882267675132
0	32157	536.38736446665	0.015488135024
0	32272	538.205268793112	0.015488135024
0	32351	539.308812047207	0.015488135024
0	32460	541.278515313572	0.458954653402
0	32508	542.417279765124	0.437004725195
0	32530	542.879061981965	0.015488135024
0	32572	544.031437891316	0.461170903432
0	32616	544.872734967774	0.427085121559
0	32830	548.170432138933	0.453066955439
0	32891	549.479168102731	0.886877580385
0	33065	552.203296380088	0.015488135024
0	33364	557.53877979236	0.015488135024
0	33453	559.429476184583	0.015488135024
0	33527	561.008959889366	0.015488135024
0	33620	562.797678452791	0.015488135024
0	33671	563.72350373428	0.015488135024
0	33744	565.065459154191	0.015488135024
0	33927	567.544695087424	0.015488135024
0	34040	570.031060324537	0.873287513738
0	34091	570.699191636814	0.015488135024
0	34193	572.312871888725	0.015488135024
0	34366	576.134569900278	2.675593623847
0	34563	578.200171597688	0.442737081951
0	34650	579.567994355156	0.015488135024
0	34741	581.106806290608	0.015488135024
0	34791	581.984446080791	0.015488135024
0	34908	584.445324099247	0.897361573976
0	35029	585.975806950823	0.015488135024
0	35134	587.610271298153	0.015488135024
0	35256	590.52166435662	1.817026615636
0	35379	592.577385015757	0.015488135024
0	35565	596.878999040577	3.196823507807
0	35624	597.733482095773	0.015488135024
0	35880	601.906293879949	0.015488135024
0	36008	604.097108663643	0.015488135024
0	36207	607.478926866927	1.81710490493
0	36336	609.259727515778	0.015488135024
0	36431	611.085055147658	0.015488135024
0	36562	613.80055262981	0.91820774805
0	36671	615.780250987766	1.334807079033
0	36949	620.272099771732	1.805500774507
0	37016	621.151248505256	0.015488135024
0	37104	623.133921116883	0.843101880702
0	37259	625.601908952106	0.437345917571
0	37347	627.026704819807	0.015488135024
0	37502	629.054937925229	0.015488135024
0	37540	629.515830411244	0.015488135024
0	37660	631.403871848107	0.015488135024
0	38100	638.634125050989	3.196478800644
0	38237	640.632255638466	0.015488135024
0	38339	643.091837510044	1.345082524608
0	38565	647.162452627391	1.391369277963
0	38657	648.267376893434	0.015488135024
0	38997	653.3415121177	0.505189587737
0	39088	654.775581138154	0.015488135024
0	39145	655.290248316869	0.015488135024
0	39283	657.373820631678	0.015488135024
0	39397	658.925115490737	0.015488135024
0	39492	660.742142946261	0.015488135024
0	39576	661.855015199876	0.015488135024
0	39682	663.719742987706	0.895022819798
0	39817	665.278323532811	0.015488135024
0	39858	665.786096382359	0.015488135024
0	39993	668.192132288263	0.015488135024
0	40131	670.183375382995	0.015488135024
0	40245	672.458383914018	1.312922151366
0	40272	672.909515265335	0.015488135024
0	40431	675.599540688062	0.015488135024
0	40612	678.05775331514	0.015488135024
0	40995	683.034682545477	0.015488135024
0	41328	688.471492855233	0.015488135024
0	41466	690.466248400877	0.015488135024
0	41546	691.826664705385	0.015488135024
0	41645	693.019828756155	0.015488135024
0	41802	695.35332348368	0.015488135024
0	41853	695.808130081375	0.015488135024
0	42001	698.113512183478	0.46383164211
0	42054	699.030177949332	0.015488135024
0	42129	700.61374806161	0.015488135024
0	42228	702.643521262242	0.952474664782
0	42451	707.267869261507	2.196472716986
0	42693	711.115732597851	1.426990733532
0	42770	712.287968677843	0.015488135024
0	42872	714.397571067622	0.972831325399
0	42940	715.511991220161	0.015488135024
0	43155	719.328615070623	0.467788016635
0	43229	720.290283036044	0.015488135024
0	43274	721.228745227912	0.015488135024
0	43375	722.97499279232	0.015488135024
0	43421	723.620977979842	0.015488135024
0	43754	727.910686243525	0.015488135024
0	43861	729.455988120955	0.015488135024
0	43882	729.946182316954	0.015488135024
0	43954	731.766068627287	1.328229722594
0	44102	734.018382034263	0.015488135024
0	44131	734.688520642405	0.015488135024
0	44191	736.559474366429	1.405518786775
0	44265	737.745214726423	0.444965710329
0	44362	739.288440206143	0.015488135024
0	44484	742.203063104498	2.224238517463
0	44621	744.224849431158	0.015488135024
0	44793	746.462490792445	0.015488135024
0	44865	747.130550282884	0.015488135024
0	45047	751.339389421909	2.737543010717
0	45202	752.965566597194	0.015488135024
0	45324	754.762126804973	0.015488135024
0	45467	756.669898581184	0.015488135024
0	45530	757.360063723762	0.015488135024
0	45632	759.305044903056	0.015488135024
0	45785	761.076255646999	0.015488135024
0	45846	761.503559222072	0.015488135024
0	45913	762.911557940865	0.909432319902
0	46219	766.884504923935	0.015488135024
0	46362	769.517278447273	0.015488135024
0	46460	771.52617264039	0.015488135024
0	46584	773.586492104824	0.015488135024
0	46637	774.01875391544	0.015488135024
0	46837	776.924957495867	0.015488135024
0	46934	778.663280343974	0.015488135024
0	47107	781.55164616322	0.015488135024
0	47183	782.979009782905	0.015488135024
0	47278	784.757778402686	0.470659828072
0	47378	786.323219571742	0.015488135024
0	47445	786.953451312093	0.015488135024
0	47516	788.323730682948	0.482785518632
0	47598	789.598437678822	0.442928804668
0	47783	793.027949242001	0.508288423998
0	47848	793.443793793196	0.015488135024
0	48087	797.715667135457	1.377454432801
0	48246	799.519706742831	0.015488135024
0	48305	800.438553058234	0.015488135024
0	48431	802.24662820012	0.015488135024
0	48553	804.008074843776	0.015488135024
0	48696	806.393373855472	0.853883041723
0	48898	810.536107169682	1.741567418705
0	49130	814.927910409179	1.897159173248
0	49291	817.195988403528	0.015488135024
0	49314	817.638737599681	0.015488135024
0	49480	820.550892233269	0.015488135024
0	49568	822.313251990621	0.93375882821
0	49635	824.122476894813	1.337247240802
0	50213	832.090390976331	0.015488135024
0	50376	835.66216467058	2.257253582801
0	50471	837.269006826323	0.015488135024
0	50510	837.957969841166	0.015488135024
0	50669	840.304098703774	0.015488135024
0	50813	842.576453078262	0.015488135024
0	50913	844.62974087012	0.015488135024
0	50943	845.078642949189	0.015488135024
0	51015	846.568023492824	0.983730167246
0	51054	847.244536555871	0.015488135024
0	51135	849.078954724443	0.015488135024
0	51262	851.535875789708	1.775132784413
0	51297	852.021979660033	0.015488135024
0	51486	854.59335569343	0.015488135024
0	51579	856.167367620297	0.458744765051
0	51707	858.434759628841	0.015488135024
0	51761	858.879056996153	0.015488135024
0	51818	859.754401081347	0.015488135024
0	51978	862.003959010706	0.015488135024
0	52068	864.000059223142	0.015488135024
0	52099	864.641005292014	0.015488135024
0	52201	866.214497123907	0.015488135024
0	52284	867.312278280389	0.015488135024
0	52504	871.6353777554	3.434640428767
0	52552	872.132613510439	0.015488135024
0	52655	874.367894898624	0.954123226859
0	52705	875.356964417356	0.483564927361
0	52768	876.439831344699	0.015488135024
0	52872	878.437524726835	0.446584321863
0	52910	879.100720521878	0.015488135024
0	53028	880.928911324124	0.015488135024
0	53165	882.780108626736	0.015488135024
0	53342	886.539786593052	2.244046834394
0	53460	887.807907081194	0.015488135024
0	53704	891.590690738682	0.015488135024
0	53751	892.763539222709	0.477795104242
0	53839	894.081048359012	0.015488135024
0	53882	894.802016245331	0.015488135024
0	54038	897.065989757566	0.015488135024
0	54190	899.064878761099	0.015488135024
0	54272	901.243978797767	1.67994581291
0	54581	903.035611449831	0.425364956634
0	54696	903.944825981346	0.015488135024
0	55023	908.803685071556	1.839209941779
0	55434	914.934462999046	0.945137882724
0	55472	915.585362299726	0.015488135024
0	55582	917.660852332295	0.015488135024
0	55688	919.256579839008	0.43851505765
0	55715	919.686232400792	0.015488135024
0	55903	922.102319882313	0.015488135024
0	56014	924.1051019228	0.462039718267
0	56156	926.309727049382	0.015488135024
0	56190	926.746585491553	0.015488135024
0	56511	931.441041434183	0.015488135024
0	56817	936.32128403832	0.015488135024
0	56906	938.370876062095	0.015488135024
0	56992	940.229717029615	0.916621189614
0	57176	942.45087781984	0.015488135024
0	57229	943.358383719893	0.015488135024
0	57341	945.647162518431	0.015488135024
0	57419	946.945724064408	0.443307587902
0	57522	948.540782020039	0.015488135024
0	57663	951.73551634834	1.297457793916
0	57755	952.609382093197	0.015488135024
0	57783	953.079832516158	0.015488135024
0	57858	954.387456175024	0.015488135024
0	57971	956.21551412342	0.015488135024
0	58056	958.264345077326	0.471219998879
0	58125	959.814892119783	0.890356351973
0	58209	960.957515381437	0.015488135024
0	58261	961.453700836583	0.015488135024
0	58314	962.581907298345	0.015488135024
0	58470	965.263221119996	0.015488135024
0	58607	967.195329141897	0.015488135024
0	58638	967.634983362167	0.015488135024
0	58729	969.21160318874	0.015488135024
0	58850	971.040397780581	0.906392646885
0	58978	973.167550007767	0.015488135024
0	59103	975.6926234109	0.015488135024
0	59226	977.354034239803	0.015488135024
0	59376	980.24266872181	0.884694512517
0	59505	982.471275420334	0.493992853329
0	59581	984.025897208904	0.446019026801
0	59757	985.877803856273	0.015488135024
0	59782	986.338284070813	0.015488135024
0	60013	989.804069487683	0.015488135024
0	60277	992.725836711439	0.015488135024
0	60654	999.358171602529	1.833061537732
0	60715	1000.502181836573	0.015488135024
0	60892	1004.202780095091	2.257809085076
0	61045	1006.411972166342	0.015488135024
0	61149	1008.810755372086	0.848865517347
0	61320	1010.963775931871	0.015488135024
0	61362	1011.440544840242	0.015488135024
0	61495	1014.094702564881	0.015488135024
0	61724	1018.208735317263	0.015488135024
0	61835	1020.269816382526	0.015488135024
0	61899	1021.590687221517	0.015488135024
0	61969	1023.357689887924	0.869534892055
0	62074	1025.412257822871	0.015488135024
0	62119	1026.491970785721	0.423924226921
0	62158	1027.425779575171	0.451460817667
0	62242	1028.834751149144	0.015488135024
0	62415	1031.007185872452	0.015488135024
0	62527	1033.357543341067	0.481168984787
0	62662	1035.575285132308	0.015488135024
0	63010	1041.08354660592	0.015488135024
0	63151	1043.720282093719	0.015488135024
0	63222	1045.104277497989	0.015488135024
0	63354	1047.318259699835	0.015488135024
0	63421	1048.447544175452	0.015488135024
0	63531	1050.490684829265	0.015488135024
0	63653	1052.96955566241	1.799655672073
0	63737	1054.366428552198	0.015488135024
0	64005	1058.527494338564	0.015488135024
0	64079	1060.301686018244	0.916571769679
0	64105	1060.738265934662	0.015488135024
0	64129	1061.192049348711	0.015488135024
0	64256	1063.246640778632	0.015488135024
0	64412	1065.697985573006	0.015488135024
0	64547	1067.788624326597	0.015488135024
0	64726	1070.045236324746	0.015488135024
0	64769	1070.468870063308	0.015488135024
0	64811	1071.207918122543	0.015488135024
0	64984	1074.299521752487	0.015488135024
0	65368	1080.363616908738	1.787083056526
0	65442	1080.846366836388	0.015488135024
0	65537	1082.169908888548	0.015488135024
0	65652	1084.403027629102	0.433714562517
0	65872	1088.339160595983	0.015488135024
0	66008	1090.832852467217	0.015488135024
0	66175	1094.210293512348	0.923841545896
0	66625	1101.155688086269	0.015488135024
0	66654	1101.794310900641	0.015488135024
0	66739	1103.570345763856	0.874430020808
0	66817	1104.874232559449	0.441186991708
0	66995	1107.797734746325	1.81795252534
0	67304	1112.490900582871	1.72796712581
0	67475	1114.737146221039	0.015488135024
0	67548	1116.566786202846	1.378939239148
0	67689	1118.138995079767	0.015488135024
0	67852	1121.036639170845	1.784196896472
0	68008	1123.520611078034	0.442227626734
0	68082	1124.877268179366	0.015488135024
0	68216	1127.37859349294	0.015488135024
0	68316	1129.121425789692	0.862503044193
0	68346	1129.581957357126	0.015488135024
0	68370	1130.036164773588	0.015488135024
0	68543	1132.727319666251	0.440373019806
0	68612	1134.207760614469	0.475064535115
0	68773	1136.88942484473	0.015488135024
0	68811	1137.321600003976	0.015488135024
0	68835	1137.766948983138	0.015488135024
0	69074	1142.248395438408	0.015488135024
0	69154	1143.651145233293	0.015488135024
0	69267	1145.879317487566	0.015488135024
0	69500	1149.541701793932	1.353245713961
0	69592	1150.706310385647	0.015488135024
0	69686	1152.132814494307	0.460897145422
0	69845	1154.868997567423	0.015488135024
0	69995	1157.169941540992	0.015488135024
0	70100	1158.983918256219	0.015488135024
0	70186	1160.503641254923	0.015488135024
0	70288	1162.754991776348	0.015488135024
0	70470	1165.695112516295	0.015488135024
0	70559	1167.969484827398	1.804690847107
0	70679	1170.044132085808	0.861367572637
0	71239	1178.766437960477	0.015488135024
0	71380	1181.098319576279	0.015488135024
0	71509	1183.5943283232	0.446864617455
0	71606	1185.345040496565	0.461746955641
0	71693	1187.104750689049	0.015488135024
0	71875	1189.490623667947	0.015488135024
0	72030	1192.49861824951	0.900004464134
0	72130	1194.008729040853	0.015488135024
0	72217	1196.221277834613	0.921179235588
0	72326	1197.766511010542	0.015488135024
0	72377	1198.441631164439	0.015488135024
0	72440	1199.598001274588	0.439828431701
0	72494	1200.536040151034	0.476332165885
0	72615	1202.545285143678	0.015488135024
0	72750	1205.061343471323	0.904016512473
0	72816	1206.361430954623	0.865736538803
0	72994	1209.350036100036	0.910136348267
0	73038	1210.317761008192	0.015488135024
0	73331	1214.759952839227	0.015488135024
0	73574	1218.812145238321	0.015488135024
0	73751	1221.45800761513	0.015488135024
0	73822	1222.587466743183	0.015488135024
0	73915	1224.861047928285	1.379815728174
0	74086	1227.437484424199	0.015488135024
0	74162	1228.786750971014	0.015488135024
0	74281	1230.89957488276	0.015488135024
0	74397	1232.858008843084	0.872514758704
0	74524	1234.209275125161	0.015488135024
0	74557	1234.876846058	0.015488135024
0	74714	1237.380724984314	0.015488135024
0	74764	1238.29776317034	0.015488135024
0	74791	1238.984152504574	0.015488135024
0	75000	1242.121585232446	0.015488135024
0	75126	1245.308517958805	2.26042402969
0	75287	1247.723139367347	0.015488135024
0	75384	1249.279093787485	0.015488135024
0	75486	1251.029570714239	0.015488135024
0	75598	1252.547439702282	0.439190805193
0	75753	1255.095794292303	0.015488135024
0	75910	1257.825215950829	0.015488135024
0	76234	1262.493843801365	0.015488135024
0	76298	1263.850873492821	0.015488135024
0	76557	1267.491814712694	0.43598802041
0	76640	1269.316935413149	0.441206714373
0	76743	1270.844753968455	0.434571551347
0	76895	1274.37236825354	2.291519778831
0	77001	1275.967217115843	0.015488135024
0	77094	1277.854258735788	0.015488135024
0	77216	1279.834247668178	0.454216137716
0	77288	1281.358067593584	0.862225005242
0	77361	1282.490491309135	0.015488135024
0	77485	1284.369328326757	0.015488135024
0	77593	1286.026193370515	0.015488135024
0	77664	1286.940991732045	0.015488135024
0	77866	1289.891548483761	0.015488135024
0	77960	1291.860058980708	1.317497093607
0	78004	1292.351449082417	0.015488135024
0	78336	1298.530692123437	1.364310288991
0	78652	1303.304044383081	0.015488135024
0	78767	1304.617032245108	0.015488135024
0	78984	1308.202674793437	1.763644720734
0	79103	1310.22753544395	0.510552897842
0	79165	1311.168262976853	0.015488135024
0	79266	1313.22699044055	0.501081473382
0	79299	1313.91278599961	0.015488135024
0	79434	1315.853924669379	0.015488135024
0	79549	1318.218057827253	0.950330317139
0	79684	1320.303987759432	0.015488135024
0	79764	1321.614764650713	0.015488135024
0	79906	1323.5372297365	0.015488135024
0	79980	1324.488349165322	0.015488135024
0	80072	1326.076335448992	0.015488135024
0	80169	1327.778024399937	0.015488135024
0	80263	1329.532944903938	0.842032002172
0	80322	1330.6524611557	0.015488135024
0	80513	1332.969231445787	0.015488135024
0	80609	1334.728720704984	0.855517854032
0	80667	1335.818554505819	0.452304574453
0	80746	1337.402375067839	0.015488135024
0	80843	1339.378422750649	0.015488135024
0	81003	1342.299298375646	0.015488135024
0	81212	1345.075428465257	0.851140048288
0	81290	1346.123645727191	0.438952483099
0	81407	1347.899607501501	0.015488135024
0	81457	1348.817977423398	0.015488135024
0	81647	1352.498652272663	0.015488135024
0	81734	1354.573811258266	0.932986958583
0	81791	1355.489845280801	0.468243779313
0	81851	1355.971314548129	0.015488135024
0	81997	1358.450140348868	0.015488135024
0	82118	1360.28073083478	0.511024830166
0	82179	1361.177836048948	0.449279810446
0	82485	1366.355552499122	0.015488135024
0	82552	1367.993801734655	0.911350024471
0	82623	1369.587924981329	0.015488135024
0	82826	1373.52424103726	1.755440594254
0	82994	1375.66650662945	0.015488135024
0	83063	1377.543799447934	0.958124716022
0	83162	1379.323286655037	0.015488135024
0	83345	1383.180279769488	2.229021756541
0	83520	1385.397594027678	0.015488135024
0	83694	1387.730267015566	0.015488135024
0	83791	1389.5581149597	0.935668955885
0	83968	1392.16675186365	0.015488135024
0	84159	1395.125590812085	0.015488135024
0	84464	1399.659069097586	0.015488135024
0	84509	1400.116961064874	0.015488135024
0	84583	1401.411331092099	0.015488135024
0	84643	1402.504143604695	0.015488135024
0	84761	1404.768235207772	0.946382735206
0	84841	1405.937736778308	0.015488135024
0	84959	1407.759913515975	0.475183969551
0	85131	1410.174700993186	0.015488135024
0	85315	1413.040438361066	0.454592847826
0	85480	1416.22757871754	0.985287659827
0	85623	1418.320287725307	0.015488135024
0	85681	1419.262305148776	0.015488135024
0	85808	1421.324057784554	0.448100148678
0	85949	1423.975266469264	0.015488135024
0	85987	1424.44064031932	0.015488135024
0	86024	1425.09035642234	0.015488135024
0	86102	1426.658917900953	0.015488135024
0	86258	1429.344676279579	0.015488135024
0	86363	1431.241424886477	0.015488135024
0	86430	1432.586290120536	0.466213405716
0	86525	1434.178370167009	0.45009184757
0	86580	1434.678573372445	0.015488135024
0	86685	1436.053747148066	0.015488135024
0	86764	1437.456873127319	0.435901895307
0	86825	1438.321299856113	0.015488135024
0	86931	1439.893381097832	0.015488135024
0	86990	1440.757638775967	0.015488135024
0	87065	1442.168628819396	0.015488135024
0	87090	1442.612354877492	0.015488135024
0	87214	1445.327665600899	1.338493445798
0	87426	1448.0707180424	0.015488135024
0	87528	1450.103500672827	0.479016867724
0	87621	1451.525401847618	0.015488135024
0	88028	1458.859820896445	1.733272510631
0	88194	1460.683712247247	0.015488135024
0	88244	1461.630739595419	0.015488135024
0	88328	1463.684649455787	0.428442025559
0	88428	1465.518415207388	0.015488135024
0	88603	1467.773645424398	0.015488135024
0	88721	1470.056211020691	0.015488135024
0	88901	1473.850265649648	1.391678412936
0	89053	1475.656055309256	0.884982415992
0	89622	1482.849212191176	0.015488135024
0	89818	1485.56653379279	0.015488135024
0	89852	1486.21107288334	0.015488135024
0	89921	1487.551603510109	0.015488135024
0	89977	1488.516851320289	0.015488135024
0	90019	1489.215459512347	0.015488135024
0	90119	1491.190187204222	0.862685297036
0	90477	1496.793860490625	1.373954050338
0	90567	1497.678995786673	0.015488135024
0	90634	1498.645330042665	0.015488135024
0	90897	1502.27694267593	0.015488135024
0	91053	1504.984620368339	0.015488135024
0	91161	1506.982427820423	0.015488135024
0	91333	1509.253637377185	0.015488135024
0	91382	1509.949516109191	0.015488135024
0	91444	1511.13198945253	0.015488135024
0	91554	1512.984159372652	0.015488135024
0	91697	1515.188671788258	0.015488135024
0	91850	1517.641061408941	0.423308848568
0	92044	1520.014022092854	0.015488135024
0	92460	1526.566251628906	1.365814311318
0	92596	1528.349185200189	0.015488135024
0	92712	1530.325197650333	0.450887019771
0	92813	1531.654838564345	0.015488135024
0	93106	1536.399905544576	1.770401791697
0	93149	1536.944446465446	0.015488135024
0	93351	1540.728876440197	0.881239574614
0	93621	1544.719487781945	0.015488135024
0	93707	1546.138764759754	0.890363120522
0	93830	1548.435329888305	0.015488135024
0	94044	1552.061646608006	0.015488135024
0	94323	1557.304705336541	0.853182774342
0	94418	1559.294004145771	1.275538002307
0	94525	1560.886745716197	0.442532440859
0	94621	1563.207172703274	0.015488135024
0	94666	1564.144450379475	0.015488135024
0	94871	1566.550167461868	0.015488135024
0	94921	1567.024821083399	0.015488135024
0	95066	1568.818392842334	0.015488135024
0	95256	1572.469417839188	0.920539617332
0	95293	1573.112807718729	0.015488135024
0	95409	1574.65831784217	0.888086602676
0	95509	1576.017505182163	0.015488135024
0	96007	1584.025067090767	0.430437337748
0	96105	1585.640916515656	0.015488135024
0	96191	1587.516019507017	1.322078098057
0	96232	1588.215328524283	0.015488135024
0	96348	1590.003879755385	0.015488135024
0	96505	1592.456904791004	0.015488135024
0	96602	1593.637561810238	0.015488135024
0	96754	1595.646456154357	0.015488135024
0	96955	1598.350540310858	0.015488135024
0	97073	1600.415243325645	0.015488135024
0	97151	1602.201561220138	0.432797582333
0	97264	1604.012996866455	0.015488135024
0	97314	1605.113386862314	0.015488135024
0	97436	1607.168858336586	0.015488135024
0	97517	1608.294015837147	0.015488135024
0	97608	1609.889792356105	0.015488135024
0	97770	1612.130839810848	0.015488135024
0	97822	1613.035721634669	0.015488135024
0	97920	1614.625442948779	0.015488135024
0	98080	1617.526338158983	1.340792859161
0	98269	1619.792855525336	0.015488135024
0	98426	1622.211702083442	0.015488135024
0	98543	1623.996410180452	0.015488135024
0	98757	1626.746284887125	0.015488135024
0	98895	1628.696793883633	0.015488135024
0	99051	1631.107107581982	0.015488135024
0	99144	1633.146403943555	0.448640593725
0	99186	1633.637498202918	0.015488135024
0	99414	1637.005330277927	0.015488135024
0	99466	1638.105643608021	0.015488135024
0	99502	1638.982079256988	0.015488135024
0	99586	1640.573175025676	0.015488135024
0	99740	1643.597062511223	0.458104408371
0	99958	1647.251745007871	0.867579167688
0	100183	1649.24471650384	0.015488135024
0	100278	1651.022302729565	0.015488135024
0	100390	1653.026682984258	0.438926243574
0	100470	1654.670430015381	0.89458752468
0	100586	1656.487439480813	0.015488135024
0	100692	1658.245710685529	0.015488135024
0	100987	1663.099863405043	0.483848693479
0	101067	1664.644101776832	0.881128391463
0	101093	1665.097246491489	0.015488135024
0	101533	1672.792533282599	0.015488135024
0	101611	1674.607389265559	0.888483930568
0	101726	1676.443091853853	0.015488135024
0	101844	1678.232290863939	0.015488135024
0	101933	1679.520539324238	0.015488135024
0	101975	1680.192539125923	0.015488135024
0	102033	1681.31410256517	0.464913488716
0	102098	1682.690189085844	0.479855219765
0	102176	1684.268629359224	0.015488135024
0	102206	1684.758025730476	0.015488135024
0	102408	1688.35632166039	0.015488135024
0	102495	1689.729620229485	0.015488135024
0	102588	1691.282380323111	0.436676692522
0	102652	1692.41173190676	0.015488135024
0	102744	1694.039852272256	0.015488135024
0	102794	1694.98716723492	0.015488135024
0	102949	1697.406642997116	0.015488135024
0	103015	1698.543413340537	0.015488135024
0	103069	1699.632964916485	0.015488135024
0	103119	1700.69328349735	0.015488135024
0	103239	1702.947512171657	0.015488135024
0	103323	1704.72470058454	0.44134314717
0	103470	1706.93713765019	0.015488135024
0	103512	1707.451698086811	0.015488135024
0	103537	1707.905387176207	0.015488135024
0	103687	1710.174456763078	0.015488135024
0	103733	1710.605557384456	0.015488135024
0	103830	1712.18057404015	0.015488135024
0	103942	1714.014235129771	0.94189404955
0	104187	1718.062334276288	0.015488135024
0	104287	1720.844313974001	1.814441321234
0	104327	1721.487894216121	0.015488135024
0	104694	1726.43930931474	0.454944836932
0	104810	1728.285168872027	0.015488135024
0	104927	1729.916261270549	0.444682582609
0	105152	1732.828584509274	0.015488135024
0	105245	1734.445600895774	0.469385122696
0	105339	1735.56433426509	0.015488135024
0	105381	1736.44126431661	0.015488135024
0	105465	1738.471796347805	0.423531353382
0	105624	1740.453300989046	0.015488135024
0	105885	1744.569361341388	0.015488135024
0	105905	1744.993128193397	0.015488135024
0	105956	1746.286938072633	0.448948734348
0	106135	1749.038150640599	0.015488135024
0	106222	1750.619124811667	0.015488135024
0	106492	1755.314380272617	0.015488135024
0	106667	1757.889631284716	0.015488135024
0	106788	1759.681861450142	0.015488135024
0	106960	1762.644415066045	0.015488135024
0	107073	1764.759805769502	0.015488135024
0	107172	1766.49416708032	0.430755064056
0	107204	1766.997751982287	0.015488135024
0	107261	1767.921443166164	0.015488135024
0	107309	1769.027638799616	0.015488135024
0	107369	1770.113504110233	0.015488135024
0	107460	1772.075995399633	0.015488135024
0	107493	1772.714793604292	0.015488135024
0	107585	1774.543665607748	0.015488135024
0	107726	1777.402323005093	1.391921391434
0	107878	1779.618691098017	0.015488135024
0	107959	1780.975692164565	0.015488135024
0	108019	1782.085951263871	0.015488135024
0	108183	1784.261929216021	0.015488135024
0	108303	1786.330928595198	0.964918649176
0	108412	1787.868104501918	0.437330328675
0	108467	1789.040620875022	0.015488135024
0	108505	1789.701709184274	0.015488135024
0	108615	1791.534827730134	0.015488135024
0	108698	1793.433086793165	1.337565341268
0	109032	1799.1119968852	0.015488135024
0	109176	1801.365808196388	0.015488135024
0	109196	1801.842117480561	0.015488135024
0	109548	1807.866299551938	0.015488135024
0	109679	1810.110740031318	0.015488135024
0	109767	1811.906366593548	0.482320598794
0	109929	1815.108132897802	0.46493815987
0	109976	1816.007508866218	0.015488135024
0	110064	1817.345398912718	0.015488135024
0	110186	1820.088605688479	0.898332927425
0	110219	1820.802570528575	0.015488135024
0	110337	1822.361277033987	0.015488135024
0	110411	1823.469696348119	0.015488135024
0	110527	1825.47140803226	0.015488135024
0	110602	1825.976007544909	0.015488135024
0	110805	1828.933909761986	0.431119007852
0	110934	1830.999292423158	0.015488135024
0	111047	1832.831060300084	0.015488135024
0	111137	1834.642281396552	0.015488135024
0	111200	1835.534793395904	0.015488135024
0	111288	1837.374221128278	0.015488135024
0	111494	1840.340537355348	0.015488135024
0	111616	1841.761795023428	0.015488135024
0	111763	1843.651798455031	0.481153132093
0	111920	1845.712071011252	0.015488135024
0	111946	1846.150762538859	0.015488135024
0	112048	1849.136843855045	1.290295219634
0	112172	1850.479433745421	0.015488135024
0	112216	1850.906722178423	0.015488135024
0	112366	1853.000465579876	0.015488135024
0	112421	1854.309355870391	0.89569026083
0	112489	1855.616449813164	0.425591094607
0	112520	1856.074643997608	0.015488135024
0	112603	1857.694592042123	0.450417994523
0	112723	1859.599891836128	0.015488135024
0	112764	1860.258343253008	0.015488135024
0	112942	1863.852217168066	1.349841451369
0	112971	1864.330094644809	0.015488135024
0	113082	1866.151983230631	0.481715130342
0	113158	1867.613019928071	0.503581062124
0	113247	1869.142841261886	0.455769075548
0	113302	1869.639163317025	0.015488135024
0	113428	1871.235758176711	0.015488135024
0	113523	1873.251829696748	0.434357080191
0	113566	1873.942723574885	0.015488135024
0	113689	1875.95093921096	0.436242194173
0	113767	1877.0166227905	0.436430452719
0	113879	1878.771879659471	0.015488135024
0	113950	1880.158256198511	0.89690895302
0	114011	1881.306437306071	0.015488135024
0	114149	1884.36856688953	0.884251079432
0	114242	1886.195504991204	0.483912050516
0	114292	1887.394600197331	0.487161708508
0	114355	1888.76002893932	0.438877647954
0	114466	1890.581903626258	0.015488135024
0	114589	1892.925190272559	0.015488135024
0	114708	1894.874311761659	0.436982983679
0	114776	1896.207734215248	0.884271802989
0	115018	1898.543230181368	0.015488135024
0	115115	1899.907016538941	0.015488135024
0	115248	1902.64762381497	1.841952366597
0	115342	1904.611400047006	0.015488135024
0	115533	1907.947018363646	0.916726020935
0	115799	1912.421288545263	0.015488135024
0	115892	1914.023092939703	0.015488135024
0	116029	1917.331960933622	2.223175956731
0	116170	1919.344301677887	0.015488135024
0	116306	1922.049091212623	0.015488135024
0	116484	1924.56501167273	0.015488135024
0	116609	1926.302264205178	0.015488135024
0	116712	1928.076574883028	0.015488135024
0	116810	1930.081954267392	0.457260132095
0	116861	1931.414037906548	0.897830655987
0	116905	1932.138020654322	0.015488135024
0	116998	1933.719752612894	0.015488135024
0	117103	1934.978370759221	0.015488135024
0	117216	1936.688567414675	0.015488135024
0	117304	1938.690027130566	0.877558158713
0	117333	1939.113351918999	0.015488135024
0	117467	1941.4139018127	0.015488135024
0	117492	1941.87497128891	0.015488135024
0	117657	1944.331481930443	0.015488135024
0	117754	1946.125250568887	0.015488135024
0	117881	1948.125374156174	0.432257068951
0	117914	1948.606682307913	0.015488135024
0	118044	1950.848174031976	0.015488135024
0	118100	1952.034760050001	0.508263690632
0	118272	1954.522788409638	0.432319123742
0	118541	1958.772388823536	0.440901470629
0	118649	1960.484757630805	0.015488135024
0	118769	1962.492442322675	0.892962140267
0	118941	1964.786081366916	0.015488135024
0	119033	1965.69667944149	0.015488135024
0	119087	1966.901941498338	0.489444573155
0	119235	1968.639511762378	0.015488135024
0	119360	1970.519944704005	0.015488135024
0	119518	1973.810943187808	2.22286206468
0	119743	1976.532379793353	0.015488135024
0	119878	1978.548118445396	0.015488135024
0	119923	1979.017508995443	0.015488135024
0	119971	1980.100439035502	0.015488135024
0	120046	1981.432026351111	0.459507085734
0	120237	1983.916050159369	0.015488135024
0	120401	1985.990480090594	0.015488135024
0	120512	1987.800863801431	0.467877135823
0	120580	1988.765340913461	0.015488135024
0	120694	1990.738711974924	0.015488135024
0	120820	1993.594976931908	2.306549449362
0	121039	1996.753409650613	0.015488135024
0	121103	1997.6577117408	0.015488135024
0	121154	1998.541144874864	0.015488135024
0	121288	2001.300585415051	0.496809056054
0	121340	2002.682790867847	0.919541523701
0	121378	2003.384984582236	0.015488135024
0	121512	2005.617898444652	0.015488135024
0	121665	2007.915670794513	0.015488135024
0	121699	2008.34154854483	0.015488135024
0	121813	2009.913936895713	0.015488135024
0	121847	2010.360307359346	0.015488135024
0	121963	2012.172684074089	0.015488135024
0	122094	2014.127538791777	0.015488135024
0	122184	2015.233787486448	0.015488135024
0	122347	2017.750696139764	0.015488135024
0	122467	2019.702328075905	0.430239947375
0	122510	2020.404838433101	0.015488135024
0	122659	2022.434515660567	0.015488135024
0	122985	2027.395076388851	0.015488135024
0	123066	2028.523613185342	0.015488135024
0	123336	2033.429201096512	2.588119287142
0	123532	2036.821757190858	0.885701139949
0	123743	2040.11009094577	0.015488135024
0	123863	2042.408067151654	0.015488135024
0	123887	2042.862315434644	0.015488135024
0	123993	2045.107923371376	0.015488135024
0	124169	2047.54862400051	0.015488135024
0	124354	2051.357553239183	1.775867931269
0	124497	2053.470742829579	0.479983234966
0	124921	2061.343575211158	0.939491722805
0	125341	2068.958317211332	3.168537002923
0	125458	2070.305705647118	0.015488135024
0	125598	2072.208318666609	0.015488135024
0	125680	2072.689019201728	0.015488135024
0	125945	2077.920418136194	2.756642884974
0	126064	2080.012004827628	0.015488135024
0	126215	2082.820173733257	1.435850814477
0	126386	2086.733062978053	1.884892897591
0	126414	2087.20609876354	0.015488135024
0	126558	2089.45817865869	0.015488135024
0	126660	2091.704427142384	0.015488135024
0	126758	2093.503076564977	0.882800807945
0	127011	2097.524805799362	0.015488135024
0	127086	2098.745583534202	0.015488135024
0	127228	2101.140298664322	0.015488135024
0	127294	2101.904887104327	0.015488135024
0	127544	2106.856528659878	0.015488135024
0	127649	2108.874187586378	0.015488135024
0	127975	2113.235529109003	0.015488135024
0	128054	2115.245104545641	0.905930125715
0	128170	2117.136227330874	0.015488135024
0	128330	2119.149409237814	0.015488135024
0	128467	2121.174024728392	0.4770308916
0	128535	2122.504401217982	0.015488135024
0	128610	2123.84079560379	0.015488135024
0	128699	2125.213084419412	0.015488135024
0	128811	2127.025824813897	0.015488135024
0	128920	2128.858211582788	0.450221254306
0	129003	2130.383042643076	0.485229298544
0	129108	2132.284202587278	0.015488135024
0	129156	2133.188923504309	0.015488135024
0	129223	2134.308762798613	0.464897083144
0	129335	2136.35235562457	0.443970554999
0	129615	2140.866634790508	0.015488135024
0	129760	2143.308633170177	0.015488135024
0	129856	2145.131571102637	0.015488135024
0	130001	2147.104316678092	0.447647835409
0	130287	2150.924287739133	0.015488135024
0	130384	2152.531122784721	0.936311174304
0	130544	2154.964307393459	0.45703390795
0	130599	2156.511692969013	0.907794505708
0	130773	2159.465435318685	0.015488135024
0	130874	2161.79643382129	1.877554281198
0	131055	2163.74190074433	0.441779060989
0	131119	2165.125562454128	0.918711350534
0	131235	2166.856231516598	0.015488135024
0	131384	2168.93218584738	0.015488135024
0	131493	2170.738842094329	0.42995881932
0	131608	2172.805145437283	0.015488135024
0	131715	2175.534278513623	0.968389668015
0	131756	2175.991390359488	0.015488135024
0	131811	2176.493859898922	0.015488135024
0	131855	2177.148451907207	0.015488135024
0	131945	2179.019095601889	0.015488135024
0	132026	2180.612077448497	0.015488135024
0	132208	2183.55468684957	0.015488135024
0	132298	2185.342777879428	0.015488135024
0	132477	2187.599252829453	0.015488135024
0	132637	2190.052068996334	0.015488135024
0	132801	2192.764894774532	0.015488135024
0	132876	2194.571477234598	0.473435636821
0	133241	2200.118333316761	0.015488135024
0	133396	2202.153950749075	0.015488135024
0	133540	2204.173430086633	0.015488135024
0	133625	2205.341625049941	0.447793820549
0	133718	2207.097859842563	0.015488135024
0	133782	2208.472592402507	0.015488135024
0	133991	2211.162292494546	0.015488135024
0	134082	2212.966119893855	0.015488135024
0	134308	2217.252447552143	2.253874136931
0	134400	2218.551336309283	0.015488135024
0	134482	2220.178269579443	0.46496577936
0	134600	2222.175049492446	0.015488135024
0	134624	2222.613868942308	0.015488135024
0	134710	2224.375597085069	0.015488135024
0	134786	2225.991757029458	0.015488135024
0	134831	2226.666979743833	0.015488135024
0	135004	2229.15243981878	0.015488135024
0	135101	2230.460639090016	0.015488135024
0	135201	2232.691589449763	1.810582745567
0	135490	2236.891124272358	0.015488135024
0	135642	2239.671139040461	0.48740173455
0	135773	2241.051305541596	0.015488135024
0	135963	2244.811269717041	2.245492816535
0	136188	2247.24878998183	0.465591703147
0	136251	2247.96125955174	0.015488135024
0	136388	2249.988189689382	0.015488135024
0	136490	2251.762944960082	0.441068251642
0	136649	2253.582601204272	0.015488135024
0	136692	2254.082128162603	0.015488135024
0	136740	2254.762563805379	0.015488135024
0	136866	2256.587096302148	0.447737072876
0	137026	2259.869914388795	1.801710865044
0	137220	2262.09591550713	0.015488135024
0	137287	2263.82331964837	0.921586416711
0	137411	2266.009103655562	0.015488135024
0	137449	2266.677440714759	0.015488135024
0	137598	2269.410819090199	0.015488135024
0	137743	2272.132251793643	0.015488135024
0	137831	2274.205156779112	0.460254154007
0	137968	2276.856721952382	0.015488135024
0	138016	2277.763661570068	0.015488135024
0	138055	2278.685078472799	0.507524599905
0	138201	2280.77326695141	0.015488135024
0	138287	2282.340585457322	0.015488135024
0	138664	2287.911634846868	0.015488135024
0	138696	2288.584478558925	0.015488135024
0	138928	2294.167674893309	1.765138195156
0	138956	2294.675675528876	0.015488135024
0	139102	2296.921406597163	0.015488135024
0	139147	2297.787272705359	0.423276067014
0	139273	2299.703023990327	0.015488135024
0	139592	2304.82042526417	0.015488135024
0	139658	2306.476410894604	0.947752300233
0	139737	2308.02900314878	0.015488135024
0	139801	2309.212138587852	0.015488135024
0	139964	2312.149624777736	0.015488135024
0	140044	2313.699939233846	0.443983399776
0	140120	2315.102176497798	0.015488135024
0	140226	2316.933734503404	0.015488135024
0	140341	2319.032073116961	0.015488135024
0	140385	2319.956506435442	0.465782987887
0	140496	2321.582298572211	0.015488135024
0	140676	2324.354405127532	0.483686219739
0	141009	2329.605298214775	0.432314173855
0	141102	2331.179586838208	0.015488135024
0	141296	2334.471253103697	0.015488135024
0	141416	2336.51943945826	0.015488135024
0	141560	2338.980069355651	1.348009201701
0	141944	2345.468770088742	0.861180812401
0	141978	2346.102537362498	0.015488135024
0	142047	2346.922953350698	0.015488135024
0	142185	2349.374171693109	0.015488135024
0	142227	2350.272358145646	0.015488135024
0	142351	2352.582875406686	0.469370757348
0	142496	2354.56651357592	0.015488135024
0	142587	2356.488003063568	0.015488135024
0	142731	2359.277166315187	0.015488135024
0	142810	2361.062994780353	0.015488135024
0	142895	2362.571994960887	0.015488135024
0	143046	2365.512315745093	1.40136376743
0	143211	2367.948555170012	0.474518663228
0	143278	2369.278101798359	0.435608009367
0	143380	2370.896789080423	0.015488135024
0	143529	2373.35581572847	0.015488135024
0	143589	2374.009249102263	0.015488135024
0	143741	2376.415205799753	0.015488135024
0	143843	2378.197683443607	0.015488135024
0	144013	2380.781610718899	0.015488135024
0	144240	2383.747345034647	0.015488135024
0	144380	2387.102493794507	1.917582194859
0	144463	2388.160985219783	0.015488135024
0	144595	2389.88043212025	0.858916875932
0	144662	2390.298806162324	0.015488135024
0	144760	2392.00953537979	0.015488135024
0	144827	2393.575619590542	0.435992737885
0	144950	2395.452992110051	0.015488135024
0	145079	2397.888578186411	0.015488135024
0	145127	2398.776966570848	0.015488135024
0	145230	2400.341889842804	0.015488135024
0	145346	2401.917686816767	0.015488135024
0	145565	2405.613410484055	0.015488135024
0	145681	2407.620505180011	0.015488135024
0	145826	2409.425881095208	0.015488135024
0	145887	2410.1328885254	0.015488135024
0	146001	2412.197649286142	0.015488135024
0	146138	2414.163443781671	0.015488135024
0	146320	2417.056582602325	0.015488135024
0	146455	2419.488532497248	0.015488135024
0	146538	2421.24466846694	0.015488135024
0	146634	2422.989710275265	0.42895946291
0	146689	2423.876034173866	0.015488135024
0	146709	2424.344756755917	0.015488135024
0	146891	2427.701919266105	0.015488135024
0	147028	2430.349829920083	1.389356641335
0	147057	2430.778202146763	0.015488135024
0	147221	2432.795601878567	0.015488135024
0	147350	2434.577403324054	0.881516069828
0	147452	2436.155896142211	0.015488135024
0	147678	2438.539725569262	0.015488135024
0	147772	2440.493146406941	0.431508594078
0	147878	2442.116454296633	0.939056614416
0	147960	2443.117081390627	0.015488135024
0	148123	2446.497862003528	0.453679337168
0	148193	2447.440080484989	0.015488135024
0	148288	2449.422974330558	0.436336512097
0	148389	2451.249394228274	0.015488135024
0	148500	2453.350728561649	0.015488135024
0	148693	2457.34604989448	2.160425603999
0	148944	2461.758564874971	1.828368662698
0	149120	2465.265407696206	1.30290962891
0	149567	2472.786811468568	0.015488135024
0	149626	2473.874078989279	0.015488135024
0	149750	2476.153337690416	0.015488135024
0	149857	2477.830110975957	0.504464235298
0	149915	2478.922094433416	0.444748248767
0	150163	2482.333640452254	0.015488135024
0	150247	2484.122607476745	0.915063299427
0	150350	2485.665817728701	0.015488135024
0	150545	2488.517873452474	0.015488135024
0	150634	2490.544061407529	0.506313686982
0	150726	2491.88482337287	0.015488135024
0	150799	2493.237253233457	0.015488135024
0	150961	2496.4305132625	1.776717071261
0	151114	2498.485915005716	0.015488135024
0	151227	2500.721844096991	0.015488135024
0	151321	2501.876954697224	0.458616115667
0	151383	2503.031990801568	0.015488135024
0	151480	2504.910635661943	0.015488135024
0	151511	2505.390549993267	0.015488135024
0	151598	2506.980539136402	0.015488135024
0	151676	2508.066458676895	0.015488135024
0	151730	2508.921774491774	0.015488135024
0	151862	2511.408363462036	1.328742379676
0	152188	2517.018382285195	1.760559146366
0	152226	2517.473492424982	0.015488135024
0	152335	2519.585629782095	0.015488135024
0	152442	2521.574533270329	1.319713587689
0	152558	2523.393525474688	0.015488135024
0	152655	2525.65698546412	1.763417119163
0	152955	2530.193673375853	0.015488135024
0	153102	2532.417687011766	0.015488135024
0	153131	2532.857796324372	0.015488135024
0	153190	2534.182249118671	0.429276966212
0	153262	2535.748322273729	0.888416335758
0	153340	2537.335341272093	0.015488135024
0	153368	2537.79892500789	0.015488135024
0	153469	2539.608159303362	0.015488135024
0	153640	2543.482731052375	1.846917172571
0	153791	2545.543630692565	0.015488135024
0	153830	2545.994976653449	0.015488135024
0	153902	2547.336300317396	0.015488135024
0	153947	2547.996034560587	0.015488135024
0	154048	2550.166563529397	0.442583051581
0	154269	2552.971139907868	0.015488135024
0	154423	2556.655152990948	2.319261412419
0	154553	2558.462874070824	0.015488135024
0	154603	2559.107623672977	0.015488135024
0	154714	2561.719816727379	1.821982216535
0	154754	2562.170604381806	0.015488135024
0	154904	2565.570585072258	1.40300295954
0	155135	2568.693741600155	0.015488135024
0	155252	2570.889276242942	0.015488135024
0	155314	2572.644943939302	0.436664567913
0	155338	2573.126380358907	0.015488135024
0	155440	2574.912015627422	0.015488135024
0	155505	2575.828167749202	0.015488135024
0	155617	2578.291892787952	0.945872101213
0	155841	2582.339662918495	0.015488135024
0	155956	2584.375856913756	0.015488135024
0	156044	2585.753884211989	0.472500547745
0	156113	2586.882841048825	0.015488135024
0	156290	2589.657305405607	0.448480676675
0	156343	2590.077795187214	0.015488135024
0	156415	2591.232977606874	0.015488135024
0	156546	2593.59097375405	0.963073886445
0	156782	2596.660480688638	0.015488135024
0	156896	2599.237405767725	1.424520513208
0	157036	2600.836771172675	0.015488135024
0	157070	2601.254609537655	0.015488135024
0	157105	2601.905518765627	0.015488135024
0	157154	2602.991390796423	0.450373357047
0	157207	2603.899773850059	0.015488135024
0	157287	2605.228941623204	0.015488135024
0	157436	2607.471803308142	0.015488135024
0	157483	2607.949180640191	0.015488135024
0	157670	2611.436770145751	0.015488135024
0	157763	2613.847000571616	1.787319592645
0	157934	2615.991199601014	0.015488135024
0	158083	2618.669883116609	0.425221884229
0	158257	2621.197946153998	0.015488135024
0	158299	2621.685156682808	0.015488135024
0	158335	2622.368043279544	0.015488135024
0	158583	2626.644485268907	0.015488135024
0	158732	2630.600777871981	2.572318916083
0	158876	2632.909253169428	0.015488135024
0	159084	2635.422081958556	0.015488135024
0	159359	2638.772869522761	0.015488135024
0	159532	2641.656938242529	1.394458837997
0	159860	2646.287005410608	0.015488135024
0	160036	2648.989672173605	0.015488135024
0	160187	2651.255173785948	0.015488135024
0	160405	2654.848145810362	0.015488135024
0	160483	2655.965007151839	0.015488135024
0	160790	2660.744051250632	0.015488135024
0	160958	2662.819698634015	0.517743314269
0	161066	2663.941989887061	0.434464545363
0	161168	2665.754130707412	0.015488135024
0	161262	2668.131502901194	0.483510546621
0	161332	2669.752116981652	0.015488135024
0	161427	2671.770160081288	0.015488135024
0	161614	2674.553585388794	0.015488135024
0	161744	2676.829751905862	0.015488135024
0	161844	2678.774385120022	0.495755060275
0	161929	2680.144530547272	0.015488135024
0	162050	2681.964750497256	0.015488135024
0	162137	2683.852995236527	1.437525831491
0	162185	2684.792127074172	0.458485914582
0	162293	2686.613528406471	0.015488135024
0	162519	2690.423797448871	0.015488135024
0	162722	2692.959123924139	0.015488135024
0	162857	2695.218794434482	0.015488135024
0	162973	2697.046824097156	0.466583001894
0	163081	2698.620084380592	0.015488135024
0	163151	2699.554739564322	0.015488135024
0	163283	2701.961823558835	0.015488135024
0	163307	2702.386387287272	0.015488135024
0	163392	2703.756870108861	0.015488135024
0	163739	2708.704894289055	0.015488135024
0	163901	2711.131903880983	0.015488135024
0	163939	2711.593942916497	0.015488135024
0	164023	2713.159902354285	0.888428023949
0	164195	2715.143968001466	0.015488135024
0	164289	2717.066764920164	0.978620710691
0	164695	2723.099169636978	0.015488135024
0	164785	2724.68500577793	0.015488135024
0	164919	2727.359998260285	1.792740919792
0	165192	2731.33725593797	1.764570093718
0	165274	2732.228016386058	0.015488135024
0	165387	2734.273026483828	0.466920004671
0	165532	2736.701213709717	0.015488135024
0	165600	2737.870229721209	0.015488135024
0	165669	2739.012600116492	0.015488135024
0	165956	2744.013195269304	0.015488135024
0	166042	2745.874252493977	0.015488135024
0	166105	2747.023333201251	0.015488135024
0	166168	2748.236622455117	0.015488135024
0	166276	2750.244920945652	0.015488135024
0	166500	2754.28301727989	0.015488135024
0	166853	2759.873966443675	0.015488135024
0	166966	2761.729805083571	0.015488135024
0	167215	2766.113290717721	0.015488135024
0	167286	2768.110861462077	1.298360112217
0	167375	2769.10014303079	0.015488135024
0	167473	2770.484729125751	0.015488135024
0	167500	2770.939412625419	0.015488135024
0	167619	2772.908724689013	0.015488135024
0	167679	2773.817933776214	0.015488135024
0	167730	2774.705390649124	0.015488135024
0	167902	2777.141646147927	0.015488135024
0	168034	2779.847024379708	0.015488135024
0	168146	2781.853135187266	0.015488135024
0	168219	2783.222152201547	0.015488135024
0	168295	2784.256522192048	0.015488135024
0	168439	2786.566636068957	0.015488135024
0	168550	2788.600231507097	0.015488135024
0	168833	2794.108799332602	4.837125472012
0	168930	2795.880891027001	0.015488135024
0	169129	2799.840384984161	2.227945431465
0	169297	2802.017042361881	0.457341051359
0	169488	2804.503663952505	0.015488135024
0	169653	2806.854273610123	0.015488135024
0	169775	2808.749418883619	0.015488135024
0	169959	2811.440031708477	0.015488135024
0	170119	2814.096813176204	0.015488135024
0	170149	2814.61845577041	0.015488135024
0	170234	2816.132953486636	0.436594565051
0	170405	2819.093714366328	0.015488135024
0	170504	2820.256721833302	0.015488135024
0	170984	2827.437210197817	0.015488135024
0	171080	2829.463881977312	0.466514868733
0	171278	2831.936963329059	0.015488135024
0	171718	2839.629042145345	3.090513669232
0	171802	2840.068694928374	0.015488135024
0	171830	2840.50860342909	0.015488135024
0	172239	2845.608119634889	0.015488135024
0	172338	2847.396184829322	0.015488135024
0	172453	2849.215933269056	0.015488135024
0	172872	2856.845080830356	1.919435251664
0	173032	2858.932272928858	0.015488135024
0	173192	2861.600298452097	0.015488135024
0	173291	2863.630683496746	0.015488135024
0	173417	2865.935321861207	0.015488135024
0	173587	2868.365361662399	0.015488135024
0	173719	2871.063323351059	0.015488135024
0	173871	2874.343713500761	2.227606793869
0	174007	2876.192732671505	0.015488135024
0	174105	2877.732036794976	0.015488135024
0	174174	2878.821182886557	0.015488135024
0	174224	2879.91704359575	0.015488135024
0	174402	2882.374793012919	0.015488135024
0	174530	2884.679096375163	0.015488135024
0	174814	2888.678668071528	0.015488135024
0	174884	2889.816130066282	0.015488135024
0	175034	2892.070078299153	0.447465740705
0	175100	2893.210226309214	0.447943537987
0	175199	2894.554219989825	0.015488135024
0	175278	2895.928279108798	0.015488135024
0	175303	2896.372773101892	0.015488135024
0	175437	2898.829213399502	1.376797341604
0	175555	2901.084526465587	0.015488135024
0	175642	2902.672810327797	0.433449352372
0	175790	2904.518328541309	0.015488135024
0	175939	2908.253206935148	1.385749257754
0	176028	2909.255180774314	0.015488135024
0	176098	2911.00062036192	1.326237810033
0	176138	2911.677619437132	0.015488135024
0	176246	2913.515358722402	0.467340077578
0	176331	2915.734111228594	1.707150334727
0	176477	2917.303335621277	0.015488135024
0	176551	2918.475562354678	0.015488135024
0	176614	2919.423746664323	0.015488135024
0	176765	2921.845376660122	0.015488135024
0	176922	2924.466207411242	0.45130719878
0	177009	2925.770924192049	0.015488135024
0	177103	2927.656116911104	0.015488135024
0	177238	2929.919716970785	0.015488135024
0	177336	2932.172422666407	0.952495140887
0	177468	2934.282736670451	0.015488135024
0	177620	2936.529244691803	0.015488135024
0	177722	2938.553879890088	0.44634529392
0	177870	2941.075099082082	0.015488135024
0	177902	2941.510618601601	0.015488135024
0	177931	2942.170050024978	0.015488135024
0	177958	2942.900337459116	0.015488135024
0	178036	2945.138389512963	1.8298539602
0	178405	2950.338152433534	0.015488135024
0	178469	2952.158709017608	0.942033490867
0	178546	2953.530325917833	0.015488135024
0	178598	2954.413000817078	0.015488135024
0	178656	2955.579731737339	0.015488135024
0	178771	2958.051014081955	0.909681007571
0	178803	2958.599032555505	0.015488135024
0	178885	2959.765337210029	0.015488135024
0	178993	2961.802347666639	0.015488135024
0	179216	2965.152804534369	0.890386999797
0	179286	2966.308468291234	0.015488135024
0	179366	2968.173532224194	1.398461946405
0	179471	2969.097998355688	0.015488135024
0	179616	2972.046144827201	1.362707077855
0	179669	2972.934325355423	0.015488135024
0	179952	2978.054074108925	3.02944521446
0	180059	2978.502082255273	0.015488135024
0	180156	2981.152503056559	0.872058965104
0	180294	2983.514090737553	0.015488135024
0	180367	2985.317442853464	1.342767327188
0	180551	2987.789677266937	0.015488135024
0	180637	2989.345868556354	0.966883376919
0	180969	2994.392434018051	0.490716388661
0	181060	2995.991246865673	0.468783952088
0	181248	2998.676017686821	0.015488135024
0	181329	2999.18432885637	0.015488135024
0	181392	3000.599053135591	0.961038045308
0	181490	3002.392928357083	0.432727859101
0	181578	3003.917606624415	0.447533337774
0	181669	3005.929593066783	1.345231179011
0	181789	3007.939779072226	0.015488135024
0	181983	3011.329900991924	0.015488135024
0	182045	3012.933422048212	0.015488135024
0	182249	3016.489593656592	0.015488135024
0	182295	3017.611389310192	0.450496479544
0	182344	3018.333970307688	0.015488135024
0	182484	3020.270751636164	0.015488135024
0	182578	3021.39176301605	0.015488135024
0	182747	3023.867303663381	0.015488135024
0	182834	3024.982630582079	0.015488135024
0	182933	3026.628450618359	0.015488135024
0	183056	3028.569003891377	0.015488135024
0	183193	3030.294422668223	0.447964250437
0	183367	3032.810214927764	0.015488135024
0	183391	3033.244529455547	0.015488135024
0	183467	3034.591556464482	0.015488135024
0	183560	3036.363104334695	0.015488135024
0	183651	3038.3176603465	0.465211327725
0	183849	3041.8543697777	0.015488135024
0	183930	3043.622821743358	0.472897691723
0	184073	3045.5885940061	0.428545354867
0	184134	3046.021467587008	0.015488135024
0	184226	3048.081131223213	0.879941324403
0	184311	3049.427940536429	0.015488135024
0	184409	3051.693465179093	1.837779721622
0	184583	3053.969710153652	0.015488135024
0	184631	3054.699214014405	0.015488135024
0	184674	3055.823027275721	0.470081061569
0	184841	3058.339367391203	0.475453648718
0	184908	3060.091415128264	1.338462335199
0	185149	3063.605221246139	0.015488135024
0	185183	3064.24607203644	0.015488135024
0	185319	3066.759277680616	0.015488135024
0	185384	3067.910623251014	0.015488135024
0	185439	3068.800798458336	0.015488135024
0	185745	3073.612070865891	0.015488135024
0	185875	3076.375036777126	2.341545169082
0	186083	3080.052342545829	1.828633664669
0	186205	3081.562679345551	0.015488135024
0	186342	3083.615991469409	0.015488135024
0	186511	3086.58777032018	0.015488135024
0	186605	3087.742064024947	0.015488135024
0	186660	3088.487741957883	0.015488135024
0	186725	3089.602306899523	0.504416385388
0	186808	3091.225493477253	0.015488135024
0	186996	3094.477971221789	0.015488135024
0	187116	3096.439639364757	0.450843911061
0	187181	3097.779790787976	0.88456365939
0	187258	3098.698566227857	0.015488135024
0	187398	3100.507424624777	0.015488135024
0	187508	3102.497691471168	0.921281616252
0	187591	3103.997737269247	0.015488135024
0	187649	3104.955379891146	0.015488135024
0	187757	3106.874495440485	0.015488135024
0	187881	3109.088006251551	0.015488135024
0	187974	3110.984707289425	0.015488135024
0	188031	3112.732233526832	0.881990898473
0	188297	3116.463323322771	0.015488135024
0	188334	3117.140951087566	0.015488135024
0	188592	3121.074481589017	0.015488135024
0	188678	3123.344904316597	0.015488135024
0	188841	3125.594504819785	0.015488135024
0	188971	3128.267605007358	0.015488135024
0	189048	3129.411100986064	0.015488135024
0	189118	3131.698177200884	1.84531170889
0	189416	3136.934560564949	1.370871956991
0	189508	3138.518111990111	0.015488135024
0	189598	3140.258572973836	0.449649655309
0	189646	3140.953765873509	0.015488135024
0	189913	3145.934389487914	0.015488135024
0	190019	3147.986818234965	0.015488135024
0	190098	3149.52859423215	0.015488135024
0	190181	3150.60907596125	0.015488135024
0	190327	3152.581520501339	0.015488135024
0	190461	3155.068063911416	0.913899064485
0	190767	3159.99755876569	0.015488135024
0	190951	3163.169858702832	2.690280569653
0	191063	3165.503734442326	0.927405135079
0	191278	3168.760706144192	0.466576336488
0	191380	3170.592369055382	0.015488135024
0	191410	3171.062711847744	0.015488135024
0	191498	3172.697444993767	0.015488135024
0	191595	3174.407555530127	0.442022764941
0	191667	3175.73594489617	0.015488135024
0	191738	3177.115398508663	0.015488135024
0	191854	3178.694223899562	0.015488135024
0	192047	3180.930089838367	0.015488135024
0	192114	3182.238475244257	0.46494521436
0	192170	3183.366382643718	0.015488135024
0	192217	3184.080699210229	0.015488135024
0	192267	3185.224432231591	0.015488135024
0	192306	3185.916776484067	0.015488135024
0	192365	3187.225766582779	0.015488135024
0	192445	3188.594421133836	0.471575862544
0	192572	3190.8012268468	0.015488135024
0	192678	3192.8178093506	0.474835569297
0	192829	3195.287389865226	0.015488135024
1	30	0.453926305846	10
1	200	2.518195450087	8
1	278	4.344283426337	9
1	360	5.301237610688	8
1	629	10.002011666116	15
1	719	11.921466189294	3
1	815	14.627031545107	9
1	906	15.767016859889	16
1	969	16.887390238107	3
1	1033	18.493004232998	5
1	1115	19.848799659387	4
1	1164	20.999867954427	3
1	1576	27.779277978509	4
1	1652	30.148557880241	10
1	1849	33.028204844546	9
1	1955	35.116690052597	4
1	2099	37.257100973728	3
1	2270	39.932977884854	4
1	2385	41.889793536555	5
1	2559	44.392289806541	4
1	2676	47.561560951711	10
1	2841	49.977584378879	3
1	2980	51.923431671253	4
1	3122	53.94181163272	4
1	3330	56.281463181526	8
1	3396	56.767854862401	4
1	3426	57.404677000221	3
1	3520	59.400542089624	11
1	3601	60.336275173331	4
1	3695	62.154398238011	4
1	3808	64.216135478526	3
1	3866	65.616020116743	9
1	3977	67.407353803639	3
1	4044	68.758608755943	3
1	4191	71.344492109697	4
1	4218	71.770790417116	3
1	4364	74.135866518326	4
1	4459	75.283756492667	3
1	4498	76.149949634212	3
1	4660	78.616094582667	3
1	4836	81.469936602494	4
1	4957	83.097731209399	3
1	5169	86.172903546239	4
1	5452	90.233445585021	3
1	5515	91.782401824787	7
1	5732	94.316389209707	3
1	5820	96.04607018321	5
1	5873	96.769196335684	3
1	5897	97.212447526532	3
1	5983	98.764850794576	3
1	6064	100.302598254367	3
1	6308	103.858826708081	9
1	6389	105.252042738407	14
1	6570	107.784529228988	4
1	6751	110.550885221761	9
1	6809	111.694116860656	3
1	6926	114.163748171477	3
1	7133	118.384009170704	9
1	7314	120.491678591205	4
1	7416	122.568714330679	5
1	7490	123.717828114049	4
1	7550	124.779621541231	3
1	7643	126.318478446501	3
1	7759	128.35499484971	5
1	7845	130.28341509146	6
1	8012	133.19172013421	3
1	8115	135.433734171623	3
1	8189	136.563635498852	3
1	8303	138.546525575185	12
1	8418	140.60964950194	3
1	8544	143.034941059719	6
1	8584	143.961001306584	5
1	8708	146.048823912453	3
1	8770	147.676202837077	6
1	8796	148.134305846182	3
1	8919	150.137788921238	3
1	9164	153.204048096953	8
1	9217	153.716900383525	4
1	9263	154.657642287816	3
1	9287	155.114839592702	3
1	9391	156.680923767271	4
1	9491	158.396830222	8
1	9801	162.620023651695	4
1	9848	163.263490357409	3
1	9965	165.329720645815	4
1	10127	167.070425733243	8
1	10486	173.087180867437	5
1	10563	174.186094661137	9
1	10655	175.556149492261	4
1	10795	177.390267109954	8
1	10854	178.065565414497	3
1	10910	179.147957197594	7
1	10943	179.812055641234	3
1	11051	181.380695229964	3
1	11111	182.090536704809	3
1	11261	185.567841659943	13
1	11287	186.049081888974	3
1	11397	187.599891125604	3
1	11598	191.203609513712	17
1	11652	192.122918706947	3
1	11719	193.153294979633	3
1	11853	195.402269453199	3
1	11939	196.515891316493	3
1	12030	198.066692645925	3
1	12147	200.031076054213	8
1	12321	202.297859931014	8
1	12456	204.328016907896	3
1	12493	205.21992925812	5
1	12547	206.088024118523	3
1	12637	207.672055583772	3
1	12950	212.253950340512	3
1	13110	215.448726025124	9
1	13210	217.036989923223	4
1	13365	219.530172317693	3
1	13441	220.833317450736	3
1	13576	222.887156175754	9
1	13647	224.250378246749	5
1	13797	226.95381047207	4
1	14026	230.354312178245	9
1	14060	231.240676808485	5
1	14082	231.68600711435	3
1	14197	233.705681621124	10
1	14302	235.26558789041	8
1	14386	236.422281738693	3
1	14466	238.259819862373	7
1	14740	243.028967383898	5
1	14848	244.630830335211	8
1	14984	246.283912344027	9
1	15010	246.718575050806	3
1	15158	248.94830259691	4
1	15202	249.520393673607	3
1	15326	251.761468735802	3
1	15425	253.740922159318	5
1	15756	257.7913770888	4
1	15869	259.653145710019	4
1	15992	261.687486846096	4
1	16098	263.412852692156	15
1	16158	264.292676788855	4
1	16221	265.177343355011	3
1	16273	266.133415445625	3
1	16332	267.004971053498	3
1	16494	269.527815609857	8
1	16608	272.251335894974	16
1	16634	272.677913810506	3
1	16764	274.493264539666	8
1	16814	274.951969335239	4
1	16898	276.308885266783	4
1	16958	277.180232984038	3
1	17058	279.197410269958	5
1	17213	281.896351596542	3
1	17506	286.776148943468	3
1	17570	288.398942238983	7
1	17814	292.03284924073	3
1	17929	294.240110776141	18
1	18079	296.704509052821	3
1	18115	297.650412482491	5
1	18377	302.175420777412	3
1	18566	304.551961296336	3
1	18678	306.767705350469	3
1	18837	309.599767016253	8
1	19373	317.62763464972	3
1	19459	319.354904770557	10
1	19491	319.799178751802	3
1	19614	321.587924491336	4
1	19709	323.540270150853	11
1	19737	323.983594146028	3
1	19891	325.763831344336	4
1	20175	330.070654424882	4
1	20296	332.136811577156	14
1	20338	332.592332429603	4
1	20459	334.315770720134	4
1	20690	339.247555445049	16
1	20859	341.429155584026	4
1	20981	343.636234160721	3
1	21019	344.516015716259	3
1	21061	345.426163970043	5
1	21235	348.322501852521	3
1	21416	351.284415387975	4
1	21716	356.915597227922	4
1	21776	357.794482312954	3
1	21890	360.350471438979	5
1	21970	361.471156117089	7
1	22059	363.199170528297	3
1	22190	365.207935241894	4
1	22311	367.487879231685	9
1	22488	370.485646433604	4
1	22666	372.870933136147	4
1	22709	373.524790025307	3
1	22770	374.850519813486	5
1	22850	376.613966424991	5
1	22909	377.660874105181	3
1	23080	379.922259811938	4
1	23112	380.557266159494	3
1	23207	382.32345942905	5
1	23400	385.788466991266	8
1	23529	388.472406514461	9
1	23612	389.800654717822	4
1	23701	391.316206223492	3
1	23790	393.153006231505	7
1	23928	395.156818354097	9
1	23971	396.071382115214	3
1	24213	401.111270117117	28
1	24462	405.950656566466	10
1	24524	407.08151460474	3
1	24614	408.771507024953	5
1	24805	411.255246147959	8
1	24936	413.488957550393	4
1	25079	415.676447171934	4
1	25147	416.586610926707	3
1	25251	419.072901951661	11
1	25575	424.207247578971	4
1	25714	426.456556833798	3
1	25826	428.246451084859	8
1	25888	428.92052371313	3
1	26018	431.160424445312	3
1	26158	433.543759377562	3
1	26355	436.227191603737	4
1	26509	439.560151580953	19
1	26565	440.370393404616	4
1	26598	440.980857612581	3
1	26699	442.962035641022	10
1	26807	444.722269382218	3
1	26862	445.635564601127	3
1	26961	447.409223627634	4
1	27126	450.087223448464	3
1	27218	452.174227928604	5
1	27272	453.35685385728	5
1	27357	454.71168272015	4
1	27421	455.76898638871	3
1	27529	457.548429431857	3
1	27638	459.764242367202	13
1	27823	462.434031255604	3
1	27917	464.180843469051	4
1	28005	465.942482386874	7
1	28070	467.05403334228	4
1	28252	470.179396819336	10
1	28327	471.059168533028	3
1	28414	473.040990813012	7
1	28672	477.601269668082	9
1	28753	479.134863602521	4
1	28877	481.530663207806	4
1	28955	482.61159873603	3
1	29033	483.809751597729	3
1	29072	484.454536968641	3
1	29139	485.803203460875	3
1	29208	486.855555527622	3
1	29306	488.872810588373	5
1	29389	490.267424978727	4
1	29572	492.998436026792	4
1	29893	498.822853649708	9
1	30108	502.942583072999	9
1	30449	507.695180712862	4
1	30552	509.562200023225	3
1	30661	511.340320229454	8
1	30916	515.00089262603	4
1	30957	515.884005944945	3
1	31180	518.996915172966	12
1	31260	520.542634384215	5
1	31425	522.579644919536	4
1	31520	525.135076526159	6
1	31627	526.974186851589	3
1	31829	530.054229918443	4
1	32018	533.44037338063	4
1	32059	534.209091808851	3
1	32102	535.501612723919	7
1	32157	536.38736446665	4
1	32272	538.205268793112	4
1	32351	539.308812047207	3
1	32460	541.278515313572	5
1	32508	542.417279765124	5
1	32530	542.879061981965	3
1	32572	544.031437891316	5
1	32616	544.872734967774	5
1	32830	548.170432138933	9
1	32891	549.479168102731	8
1	33065	552.203296380088	4
1	33364	557.53877979236	3
1	33453	559.429476184583	3
1	33527	561.008959889366	3
1	33620	562.797678452791	3
1	33671	563.72350373428	3
1	33744	565.065459154191	3
1	33927	567.544695087424	8
1	34040	570.031060324537	11
1	34091	570.699191636814	3
1	34193	572.312871888725	4
1	34366	576.134569900278	21
1	34563	578.200171597688	16
1	34650	579.567994355156	3
1	34741	581.106806290608	3
1	34791	581.984446080791	3
1	34908	584.445324099247	12
1	35029	585.975806950823	4
1	35134	587.610271298153	4
1	35256	590.52166435662	12
1	35379	592.577385015757	8
1	35565	596.878999040577	21
1	35624	597.733482095773	4
1	35880	601.906293879949	4
1	36008	604.097108663643	3
1	36207	607.478926866927	23
1	36336	609.259727515778	4
1	36431	611.085055147658	4
1	36562	613.80055262981	12
1	36671	615.780250987766	15
1	36949	620.272099771732	16
1	37016	621.151248505256	4
1	37104	623.133921116883	7
1	37259	625.601908952106	9
1	37347	627.026704819807	4
1	37502	629.054937925229	4
1	37540	629.515830411244	3
1	37660	631.403871848107	4
1	38100	638.634125050989	31
1	38237	640.632255638466	4
1	38339	643.091837510044	7
1	38565	647.162452627391	8
1	38657	648.267376893434	3
1	38997	653.3415121177	10
1	39088	654.775581138154	8
1	39145	655.290248316869	4
1	39283	657.373820631678	3
1	39397	658.925115490737	3
1	39492	660.742142946261	4
1	39576	661.855015199876	3
1	39682	663.719742987706	12
1	39817	665.278323532811	8
1	39858	665.786096382359	4
1	39993	668.192132288263	3
1	40131	670.183375382995	3
1	40245	672.458383914018	16
1	40272	672.909515265335	4
1	40431	675.599540688062	4
1	40612	678.05775331514	3
1	40995	683.034682545477	4
1	41328	688.471492855233	3
1	41466	690.466248400877	4
1	41546	691.826664705385	3
1	41645	693.019828756155	3
1	41802	695.35332348368	8
1	41853	695.808130081375	4
1	42001	698.113512183478	16
1	42054	699.030177949332	3
1	42129	700.61374806161	3
1	42228	702.643521262242	7
1	42451	707.267869261507	12
1	42693	711.115732597851	22
1	42770	712.287968677843	3
1	42872	714.397571067622	11
1	42940	715.511991220161	3
1	43155	719.328615070623	11
1	43229	720.290283036044	3
1	43274	721.228745227912	3
1	43375	722.97499279232	4
1	43421	723.620977979842	3
1	43754	727.910686243525	4
1	43861	729.455988120955	3
1	43882	729.946182316954	3
1	43954	731.766068627287	11
1	44102	734.018382034263	4
1	44131	734.688520642405	3
1	44191	736.559474366429	8
1	44265	737.745214726423	10
1	44362	739.288440206143	8
1	44484	742.203063104498	19
1	44621	744.224849431158	4
1	44793	746.462490792445	8
1	44865	747.130550282884	3
1	45047	751.339389421909	25
1	45202	752.965566597194	4
1	45324	754.762126804973	4
1	45467	756.669898581184	4
1	45530	757.360063723762	3
1	45632	759.305044903056	4
1	45785	761.076255646999	8
1	45846	761.503559222072	4
1	45913	762.911557940865	7
1	46219	766.884504923935	4
1	46362	769.517278447273	3
1	46460	771.52617264039	3
1	46584	773.586492104824	8
1	46637	774.01875391544	4
1	46837	776.924957495867	4
1	46934	778.663280343974	4
1	47107	781.55164616322	4
1	47183	782.979009782905	3
1	47278	784.757778402686	10
1	47378	786.323219571742	4
1	47445	786.953451312093	3
1	47516	788.323730682948	7
1	47598	789.598437678822	9
1	47783	793.027949242001	10
1	47848	793.443793793196	4
1	48087	797.715667135457	9
1	48246	799.519706742831	8
1	48305	800.438553058234	3
1	48431	802.24662820012	8
1	48553	804.008074843776	4
1	48696	806.393373855472	12
1	48898	810.536107169682	12
1	49130	814.927910409179	10
1	49291	817.195988403528	4
1	49314	817.638737599681	3
1	49480	820.550892233269	8
1	49568	822.313251990621	11
1	49635	824.122476894813	8
1	50213	832.090390976331	4
1	50376	835.66216467058	16
1	50471	837.269006826323	3
1	50510	837.957969841166	3
1	50669	840.304098703774	3
1	50813	842.576453078262	4
1	50913	844.62974087012	3
1	50943	845.078642949189	3
1	51015	846.568023492824	9
1	51054	847.244536555871	3
1	51135	849.078954724443	4
1	51262	851.535875789708	12
1	51297	852.021979660033	3
1	51486	854.59335569343	4
1	51579	856.167367620297	9
1	51707	858.434759628841	8
1	51761	858.879056996153	4
1	51818	859.754401081347	3
1	51978	862.003959010706	4
1	52068	864.000059223142	3
1	52099	864.641005292014	3
1	52201	866.214497123907	3
1	52284	867.312278280389	3
1	52504	871.6353777554	38
1	52552	872.132613510439	3
1	52655	874.367894898624	7
1	52705	875.356964417356	5
1	52768	876.439831344699	3
1	52872	878.437524726835	7
1	52910	879.100720521878	3
1	53028	880.928911324124	4
1	53165	882.780108626736	4
1	53342	886.539786593052	18
1	53460	887.807907081194	3
1	53704	891.590690738682	3
1	53751	892.763539222709	5
1	53839	894.081048359012	4
1	53882	894.802016245331	3
1	54038	897.065989757566	4
1	54190	899.064878761099	3
1	54272	901.243978797767	8
1	54581	903.035611449831	7
1	54696	903.944825981346	3
1	55023	908.803685071556	12
1	55434	914.934462999046	9
1	55472	915.585362299726	3
1	55582	917.660852332295	3
1	55688	919.256579839008	10
1	55715	919.686232400792	3
1	55903	922.102319882313	4
1	56014	924.1051019228	5
1	56156	926.309727049382	8
1	56190	926.746585491553	4
1	56511	931.441041434183	3
1	56817	936.32128403832	3
1	56906	938.370876062095	3
1	56992	940.229717029615	10
1	57176	942.45087781984	8
1	57229	943.358383719893	3
1	57341	945.647162518431	4
1	57419	946.945724064408	9
1	57522	948.540782020039	4
1	57663	951.73551634834	12
1	57755	952.609382093197	4
1	57783	953.079832516158	3
1	57858	954.387456175024	3
1	57971	956.21551412342	8
1	58056	958.264345077326	5
1	58125	959.814892119783	8
1	58209	960.957515381437	8
1	58261	961.453700836583	4
1	58314	962.581907298345	4
1	58470	965.263221119996	4
1	58607	967.195329141897	4
1	58638	967.634983362167	3
1	58729	969.21160318874	3
1	58850	971.040397780581	16
1	58978	973.167550007767	3
1	59103	975.6926234109	3
1	59226	977.354034239803	3
1	59376	980.24266872181	9
1	59505	982.471275420334	9
1	59581	984.025897208904	6
1	59757	985.877803856273	4
1	59782	986.338284070813	3
1	60013	989.804069487683	8
1	60277	992.725836711439	4
1	60654	999.358171602529	12
1	60715	1000.502181836573	3
1	60892	1004.202780095091	17
1	61045	1006.411972166342	3
1	61149	1008.810755372086	9
1	61320	1010.963775931871	8
1	61362	1011.440544840242	4
1	61495	1014.094702564881	4
1	61724	1018.208735317263	4
1	61835	1020.269816382526	4
1	61899	1021.590687221517	3
1	61969	1023.357689887924	7
1	62074	1025.412257822871	3
1	62119	1026.491970785721	5
1	62158	1027.425779575171	5
1	62242	1028.834751149144	4
1	62415	1031.007185872452	4
1	62527	1033.357543341067	5
1	62662	1035.575285132308	8
1	63010	1041.08354660592	3
1	63151	1043.720282093719	3
1	63222	1045.104277497989	3
1	63354	1047.318259699835	8
1	63421	1048.447544175452	3
1	63531	1050.490684829265	4
1	63653	1052.96955566241	15
1	63737	1054.366428552198	4
1	64005	1058.527494338564	4
1	64079	1060.301686018244	7
1	64105	1060.738265934662	3
1	64129	1061.192049348711	3
1	64256	1063.246640778632	4
1	64412	1065.697985573006	3
1	64547	1067.788624326597	5
1	64726	1070.045236324746	8
1	64769	1070.468870063308	4
1	64811	1071.207918122543	3
1	64984	1074.299521752487	8
1	65368	1080.363616908738	13
1	65442	1080.846366836388	5
1	65537	1082.169908888548	8
1	65652	1084.403027629102	9
1	65872	1088.339160595983	4
1	66008	1090.832852467217	4
1	66175	1094.210293512348	7
1	66625	1101.155688086269	3
1	66654	1101.794310900641	3
1	66739	1103.570345763856	9
1	66817	1104.874232559449	9
1	66995	1107.797734746325	20
1	67304	1112.490900582871	20
1	67475	1114.737146221039	4
1	67548	1116.566786202846	11
1	67689	1118.138995079767	4
1	67852	1121.036639170845	18
1	68008	1123.520611078034	9
1	68082	1124.877268179366	4
1	68216	1127.37859349294	4
1	68316	1129.121425789692	15
1	68346	1129.581957357126	3
1	68370	1130.036164773588	3
1	68543	1132.727319666251	16
1	68612	1134.207760614469	5
1	68773	1136.88942484473	8
1	68811	1137.321600003976	4
[...]
3	145462	2403.748207169783	2.611030896074
3	145490	2404.111977672724	0.046464405072
3	145711	2407.879743937743	2.442514102644
3	145764	2408.157064779597	0.046464405072
3	145863	2409.642051306563	1.046464405072
3	145962	2411.688351180394	1.046464405072
3	146026	2412.334259714	0.046464405072
3	146091	2413.119122983999	0.046464405072
3	146180	2414.460942225433	1.061952540096
3	146432	2419.032971481448	1.546464405072
3	146674	2423.502547898642	3.44822653033
3	146779	2425.719600554498	5.665279186186
3	146798	2425.946447026414	0.030976270048
3	146827	2426.278775662426	0.030976270048
3	146936	2428.509676636714	1.046464405072
3	147120	2431.303435255437	1.061952540096
3	147140	2431.588614267608	0.046464405072
3	147197	2432.246402864448	0.046464405072
3	147295	2433.305046554377	0.046464405072
3	147428	2435.53852144718	1.770776167374
3	147490	2436.561519886212	0.030976270048
3	147561	2437.431272108904	0.046464405072
3	147598	2437.683523909623	0.046464405072
3	147806	2440.762193184302	1.07744067512
3	147888	2442.155174634193	2.470422125011
3	147943	2442.669583766841	0.046464405072
3	147978	2443.217754268283	0.594634906514
3	148071	2444.971307327291	1.241488372719
3	148217	2447.712198452909	1.776388128415
3	148306	2449.654822879809	0.030976270048
3	148521	2453.420425169257	2.453573083306
3	148556	2453.975786371824	0.046464405072
3	148773	2458.007511290498	1.592928810144
3	148859	2459.354573911241	0.046464405072
3	149008	2462.487219440201	2.092928810144
3	149161	2465.53870455961	1.093436123243
3	149229	2466.551187209193	0.046464405072
3	149295	2467.672193771407	0.546464405072
3	149315	2467.897626147087	0.046464405072
3	149391	2469.292974333821	0.046464405072
3	149524	2471.685297900666	0.664524610871
3	149791	2476.419910450924	0.561952540096
3	149945	2479.318235568582	2.546464405072
3	149972	2479.732614233832	0.046464405072
3	150051	2480.588005382093	0.046464405072
3	150150	2481.910895409657	0.046464405072
3	150263	2484.176815949329	2.312384944744
3	150391	2486.29805855842	0.546464405072
3	150483	2487.706970961037	0.045054522461
3	150527	2488.087807696625	0.046464405072
3	150689	2491.281131335946	3.068008008862
3	150702	2491.41500151377	0.030976270048
3	150981	2496.484721735084	3.540402864236
3	150996	2496.614998341931	0.030976270048
3	151088	2497.849471871911	0.046464405072
3	151200	2500.136519144067	1.782463408365
3	151252	2500.918793479679	0.046464405072
3	151271	2500.993123539408	0.046464405072
3	151577	2506.568018043878	4.887397128503
3	151646	2507.510139541674	0.561952540096
3	151894	2511.880348072197	4.01327189143
3	151906	2511.980681970537	0.046464405072
3	151964	2512.709447244064	0.046464405072
3	151986	2512.824646874333	0.046464405072
3	152037	2513.658525872579	0.046464405072
3	152100	2514.657380772229	0.046464405072
3	152450	2521.597765472865	5.775152365307
3	152504	2522.437994137717	0.561952540096
3	152709	2525.919240518482	2.561952540096
3	152777	2527.34549813421	0.046464405072
3	152900	2529.400990992566	1.267251371393
3	152912	2529.547488419949	0.046464405072
3	153048	2531.633229205455	0.046464405072
3	153440	2539.032919917631	6.954682004187
3	153561	2540.872887853176	0.030976270048
3	153687	2543.737938798503	0.046464405072
3	153810	2545.593837841728	0.046464405072
3	154009	2549.101280647462	3.333421612582
3	154140	2551.530043772999	1.741814303359
3	154169	2551.730320076476	0.030976270048
3	154187	2551.876039155842	0.046464405072
3	154240	2552.546253306636	0.046464405072
3	154280	2552.994372110404	0.49458320884
3	154577	2558.666350901669	5.123905080192
3	154777	2562.295579684021	2.546464405072
3	154936	2565.943684437612	1.561952540096
3	155013	2567.011474507214	0.046464405072
3	155079	2567.751597192098	0.046464405072
3	155101	2568.013070680795	0.046464405072
3	155238	2570.500422299038	0.585675265115
3	155405	2574.079130998074	2.363208560157
3	155484	2575.316643731006	0.046464405072
3	155644	2578.675114252298	0.030976270048
3	155914	2583.320961743912	0.58435541848
3	156077	2586.205938845761	2.07744067512
3	156155	2587.537176257706	1.046464405072
3	156321	2589.773113292044	1.546464405072
3	156379	2590.360072561771	0.046464405072
3	156569	2593.62969409161	3.190054206386
3	156582	2593.675637185826	0.030976270048
3	156690	2595.320376094137	0.046464405072
3	156803	2596.85346338782	0.046464405072
3	156959	2600.073361957532	3.07744067512
3	157011	2600.425408890228	0.046464405072
3	157047	2600.860003375211	0.481058890055
3	157240	2604.349910059364	2.610314242017
3	157262	2604.685370005802	0.046464405072
3	157344	2605.930173385951	0.524109724871
3	157346	2605.937039931128	0.530976270048
3	157456	2607.560459143355	0.030976270048
3	157557	2609.128946036865	0.478743695207
3	157609	2610.074294403877	0.030976270048
3	157788	2613.970812433343	1.57744067512
3	157799	2614.025562167573	0.030976270048
3	157843	2614.401952267805	0.046464405072
3	157914	2615.563411989311	0.046464405072
3	158041	2617.858407015977	2.088617025015
3	158042	2617.862718801106	2.092928810144
3	158128	2619.017762551876	0.555597577068
3	158141	2619.11512046643	0.046464405072
3	158202	2620.14024905739	0.030976270048
3	158389	2623.063741073372	1.061952540096
3	158462	2624.292741654146	0.936492235298
3	158480	2624.464405688981	0.030976270048
3	158759	2630.82852556848	3.07744067512
3	158779	2630.961942395966	0.030976270048
3	158827	2631.888423442117	0.030976270048
3	158947	2633.698933029975	0.046464405072
3	158967	2633.853770916164	0.030976270048
3	159009	2634.430177938137	0.530976270048
3	159055	2634.882878969409	0.046464405072
3	159129	2635.856215383082	0.046464405072
3	159209	2636.951931679062	1.046464405072
3	159234	2637.014531229409	0.046464405072
3	159246	2637.182021138691	0.046464405072
3	159317	2637.773851197739	0.046464405072
3	159376	2638.825426297633	0.030976270048
3	159558	2641.757611120185	1.954422515924
3	159622	2642.335472157178	0.046464405072
3	159647	2642.760166467607	0.030976270048
3	159686	2643.219639355991	0.046464405072
3	159700	2643.273571516518	0.046464405072
3	159894	2646.772909723572	1.417443127063
3	160101	2650.01831745348	1.061952540096
3	160132	2650.405862760132	0.046464405072
3	160171	2650.780126498137	0.046464405072
3	160279	2653.088347955317	0.531178870909
3	160281	2653.10363348948	0.546464405072
3	160354	2654.033253455787	0.057224866776
3	160374	2654.33546380171	0.030976270048
3	160459	2655.34139506881	0.561952540096
3	160598	2657.866625702317	0.713114594741
3	160675	2659.25933729944	0.824666385395
3	160811	2660.975744878888	0.561952540096
3	160848	2661.194740859534	0.030976270048
3	160867	2661.423615650708	0.046464405072
3	161008	2663.104392280194	0.546464405072
3	161298	2668.858304449954	5.375016597013
3	161482	2672.725310062159	2.066205238782
3	161531	2673.181976168127	0.046464405072
3	161567	2673.664388375608	0.046464405072
3	161681	2675.96594854013	1.892642259336
3	161707	2676.292736766979	0.046464405072
3	161718	2676.392684395219	0.030976270048
3	161761	2676.993317611139	0.030976270048
3	161816	2677.88338778154	0.046464405072
3	161941	2680.183250884832	1.570217901746
3	161993	2680.874111535783	0.046464405072
3	162196	2684.830847411732	3.543047589254
3	162225	2685.395858578093	0.046464405072
3	162401	2688.543996024591	2.046464405072
3	162550	2690.642881072606	0.561952540096
3	162597	2691.280587817479	0.046464405072
3	162632	2691.957799392438	0.046464405072
3	162646	2692.043415247323	0.030976270048
3	162805	2694.385910379424	0.046464405072
3	162893	2695.784836415039	0.046464405072
3	162912	2696.043316241619	0.046464405072
3	163008	2697.289128570974	1.046464405072
3	163124	2698.893567920186	0.561952540096
3	163204	2700.485792325932	1.096214482853
3	163262	2701.391387487281	0.280427606388
3	163423	2704.069064594315	1.292404989634
3	163452	2704.612504272542	0.046464405072
3	163479	2705.049291821197	0.046464405072
3	163496	2705.252237999651	0.030976270048
3	163545	2705.841724932885	0.046464405072
3	163591	2706.164381211034	0.046464405072
3	163628	2706.435200579284	0.046464405072
3	163761	2708.796308205534	0.046464405072
3	163858	2710.5418759287	1.493416419442
3	163869	2710.694059458256	0.046464405072
3	164080	2713.623955564253	2.592928810144
3	164132	2714.379485446184	0.046464405072
3	164234	2715.384915022043	0.046464405072
3	164341	2717.762087129566	0.62806652146
3	164394	2718.649508215888	0.030976270048
3	164417	2718.935825677759	0.046464405072
3	164458	2719.514017116213	0.046464405072
3	164480	2719.763980032577	0.046464405072
3	164500	2720.024904915342	0.030976270048
3	164586	2721.252490708626	0.030976270048
3	164665	2722.497898563566	0.030976270048
3	164748	2723.921396146113	0.530976270048
3	164943	2727.429694867893	2.945123027559
3	165013	2728.161619355633	0.546464405072
3	165035	2728.25470224162	0.039253504154
3	165075	2728.507946855504	0.046464405072
3	165099	2728.88161318843	0.030976270048
3	165222	2731.614937794814	1.046464405072
3	165311	2732.506052684175	0.546464405072
3	165463	2735.572956503308	3.061952540096
3	165570	2737.111777707162	0.561952540096
3	165656	2738.648858791026	0.108416945168
3	165701	2739.709496796834	1.169054950976
3	165786	2741.571248752758	0.046464405072
3	165849	2742.189777890991	0.046464405072
3	165902	2743.098337980512	0.046464405072
3	165985	2744.393625784162	0.561952540096
3	166209	2748.729570240048	2.01405885393
3	166430	2752.988032922508	1.290449576983
3	166443	2753.046612610082	0.046464405072
3	166470	2753.41284244697	0.046464405072
3	166611	2756.21825814801	0.546464405072
3	166689	2757.291604514215	0.046464405072
3	166711	2757.527229010227	0.046464405072
3	166800	2759.096436651563	0.046464405072
3	166830	2759.296840548159	0.046464405072
3	166939	2761.166710773045	1.069529604212
3	167076	2763.553351627155	0.417824830236
3	167141	2764.406166207166	0.046464405072
3	167323	2768.583421236148	2.57744067512
3	167349	2768.660710035373	0.046464405072
3	167406	2769.28988582171	0.561952540096
3	167431	2769.723125039187	0.030976270048
3	167589	2772.310572496811	2.464972653886
3	167654	2773.279983273979	0.546464405072
3	167795	2775.652204273981	1.849960702882
3	167870	2776.658632344022	0.046464405072
3	167956	2778.013249837577	1.030976270048
3	168073	2780.250323854278	0.546464405072
3	168241	2783.507307634023	1.076124640723
3	168407	2785.944659515986	1.993504470439
3	168491	2787.096296728682	0.123905080192
3	168902	2795.240732952036	8.13367988968
3	169156	2800.064820442969	2.623905080192
3	169170	2800.14584003077	0.046464405072
3	169220	2800.715051276302	0.046464405072
3	169362	2802.522448518507	0.561952540096
3	169379	2802.709849705499	0.030976270048
3	169408	2803.328927415799	0.046464405072
3	169532	2804.99448690361	0.561952540096
3	169637	2806.402972932672	0.030976270048
3	169661	2806.877505812659	0.505509150035
3	169673	2806.96294480892	0.046464405072
3	169847	2809.554565249098	1.046464405072
3	170089	2813.461639933796	1.046464405072
3	170263	2816.411143945169	2.741434426541
3	170319	2817.361724384729	0.553850398939
3	170372	2818.367284403202	0.030976270048
3	170466	2819.755767915379	0.046464405072
3	170485	2819.826089349067	0.046464405072
3	170616	2822.135498972883	1.97217970866
3	170676	2823.283058827304	0.530976270048
3	170731	2824.050980210718	0.046464405072
3	170762	2824.390558050145	0.046464405072
3	170786	2824.732193606758	0.046464405072
3	170802	2824.931865925991	0.030976270048
3	170892	2826.411057161638	0.030976270048
3	170903	2826.488016889502	0.046464405072
3	170914	2826.561113030281	0.046464405072
3	171098	2829.518090449896	2.368007911824
3	171121	2829.769010519762	0.046464405072
3	171140	2829.96989087882	0.046464405072
3	171151	2830.03477733006	0.046464405072
3	171218	2831.086020798178	0.546464405072
3	171240	2831.422917925154	0.046464405072
3	171366	2833.57597739511	1.968040325857
3	171430	2834.100260437429	0.030976270048
3	171465	2834.26834509937	0.046464405072
3	171528	2835.340607519886	0.046464405072
3	171760	2839.834908150634	2.096788378738
3	171781	2839.964578554744	0.046464405072
3	171889	2841.213425679712	0.046464405072
3	171906	2841.512728538664	0.030976270048
3	172007	2842.881161569973	0.046464405072
3	172038	2843.273071623359	0.046464405072
3	172069	2843.602761535801	0.046464405072
3	172156	2844.857007495345	0.046464405072
3	172205	2845.180822468534	0.046464405072
3	172415	2848.594921900442	1.181395830409
3	172426	2848.724471354611	0.046464405072
3	172509	2849.916459493952	0.030976270048
3	172573	2850.956441174329	0.546464405072
3	172777	2853.740450567859	0.030976270048
3	172916	2857.007706248108	2.092169026718
3	172954	2857.519643068239	0.046464405072
3	173012	2858.525660255596	0.046464405072
3	173040	2858.955505131394	0.47630928087
3	173394	2865.518192359971	2.1287032529
3	173430	2865.989530333791	2.60004122672
3	173471	2866.495595429731	0.046464405072
3	173505	2866.897828124956	0.046464405072
3	173573	2867.933917174119	0.046464405072
3	173688	2870.20912468227	0.859978924349
3	173758	2871.564832359316	0.919330021542
3	173935	2874.832242506408	1.57744067512
3	174140	2877.994305809379	2.229973021533
3	174284	2880.618509364831	0.601263988466
3	174321	2881.033540717594	0.046464405072
3	174501	2884.039076629332	1.729128272253
3	174561	2885.017925570607	0.046464405072
3	174606	2885.6646138493	0.046464405072
3	174754	2887.430425087861	0.046464405072
3	174861	2889.230072579832	0.811648662589
3	174961	2890.999679369284	1.530976270048
3	175117	2893.34680219533	0.530976270048
3	175452	2898.867933737062	3.219819700118
3	175543	2900.625643265187	0.046464405072
3	175673	2903.083197124329	1.546464405072
3	175694	2903.37815107675	0.046464405072
3	175749	2903.912471927826	0.530976270048
3	175962	2908.506122063877	2.613978361586
3	175976	2908.563103649747	0.046464405072
3	176157	2911.812324905459	2.608416945168
3	176181	2912.046935053552	0.030976270048
3	176366	2915.872873866773	2.07744067512
3	176379	2915.977190553878	0.030976270048
3	176401	2916.043972287797	0.046464405072
3	176529	2917.890102417055	0.046464405072
3	176679	2920.42025693297	1.029150392749
3	176773	2921.868608862658	0.513905705586
3	176959	2924.838823651843	1.546464405072
3	177153	2928.368127117634	1.273006891805
3	177382	2932.814566065633	2.07744067512
3	177558	2935.494708897493	0.546464405072
3	177792	2939.769907175647	2.237019120083
3	178056	2945.312373819863	0.046464405072
3	178175	2946.925586071955	0.046464405072
3	178260	2948.438494364674	1.046464405072
3	178330	2949.347992930882	0.046464405072
3	178354	2949.620838399911	0.046464405072
3	178583	2954.040549075948	2.211057480232
3	178694	2956.317401646644	1.892901177818
3	178845	2959.076004739569	1.957330743706
3	178872	2959.312746362767	0.046464405072
3	178942	2960.49901323329	0.105375557459
3	179022	2962.184030979207	0.546464405072
3	179034	2962.237061116021	0.046464405072
3	179386	2968.33546043428	5.592928810144
3	179456	2968.69204081242	0.046464405072
3	179481	2969.136718693248	0.4911422859
3	179696	2973.256014184352	4.061952540096
3	180001	2978.29918078255	3.139393215216
3	180238	2982.63799369186	3.046464405072
3	180397	2985.731436187347	2.07744067512
3	180466	2986.488172158288	0.030976270048
3	180657	2989.415565163962	1.976576333642
3	180720	2990.059204168815	0.046464405072
3	180785	2991.014762615201	0.030976270048
3	180887	2993.074802064366	1.475686188249
3	180999	2994.525313759308	1.092928810144
3	181155	2997.401631429002	2.07744067512
3	181197	2998.083011449218	0.046464405072
3	181219	2998.265305388163	0.046464405072
3	181259	2998.699249889357	0.480408906266
3	181279	2998.94316661386	0.046464405072
3	181315	2999.163031506037	0.046464405072
3	181591	3003.956326961975	3.454286895668
3	181702	3006.361841629924	1.57744067512
3	181816	3008.262730799025	0.561952540096
3	181896	3009.79366683202	1.284927630058
3	181951	3010.733138175669	0.203127892098
3	182073	3013.351776959924	2.061952540096
3	182110	3013.8254237281	0.046464405072
3	182234	3016.09779599167	0.485619012169
3	182399	3019.00301817748	1.06954911806
3	182426	3019.482940737709	0.046464405072
3	182435	3019.541918315705	0.030976270048
3	182454	3019.709623445189	0.046464405072
3	182544	3020.715353869327	0.561952540096
3	182634	3022.13240115143	0.123905080192
3	182684	3022.788363982678	0.046464405072
3	182790	3024.153743475572	1.061952540096
3	182976	3026.989047184981	0.561952540096
3	183092	3028.977058682266	0.561952540096
3	183111	3029.029480199147	0.046464405072
3	183122	3029.188996069565	0.046464405072
3	183141	3029.263878220527	0.046464405072
3	183302	3031.931395260428	2.421638739891
3	183328	3032.254735134521	0.030976270048
3	183509	3035.124514498331	2.648537709355
3	183704	3038.993861828795	3.136505775061
3	183794	3040.895644874699	0.030976270048
3	183816	3041.125139232675	0.046464405072
3	183942	3043.661542080918	1.992622617894
3	183969	3043.904721448562	0.030976270048
3	184325	3049.466660873989	3.123243969978
3	184495	3053.02553901245	3.546464405072
3	184534	3053.382792905557	0.046464405072
3	184545	3053.487550550521	0.030976270048
3	184726	3056.5671806206	2.537655187361
3	184762	3057.020893234424	0.046464405072
3	184950	3060.564672518293	3.261144689377
3	185098	3062.944222776476	0.046464405072
3	185120	3063.036316438084	0.046464405072
3	185254	3065.455084105509	1.900672781384
3	185486	3069.495555564969	3.599297584264
3	185544	3070.894718886398	0.046464405072
3	185564	3070.968185828183	0.030976270048
3	185590	3071.272253937372	0.046464405072
3	185924	3076.813180748287	3.623905080192
3	186101	3080.106551018413	3.119842522782
3	186233	3081.754098620764	0.05584611362
3	186371	3083.900446012312	1.857292097002
3	186442	3085.494730821284	0.904545177433
3	186453	3085.578351815102	0.046464405072
3	186540	3086.741249131338	0.546464405072
3	186760	3090.049351212176	3.103023275046
3	186914	3093.210657849332	2.061952540096
3	186981	3094.044355540772	0.046464405072
3	187004	3094.501203424325	0.503312288625
3	187062	3095.313444167381	0.046464405072
3	187200	3097.860499785792	2.061952540096
3	187355	3099.908559702558	0.046464405072
3	187570	3103.411102510075	2.928527454644
3	187707	3105.886614891675	1.237234922558
3	187856	3108.60539135011	1.720339257391
3	187959	3110.529695881559	1.088712775602
3	188039	3112.755465729368	3.314482623411
3	188089	3113.824858696499	0.046464405072
3	188120	3114.254139605111	0.046464405072
3	188202	3115.429808711179	0.046464405072
3	188226	3115.488892961654	0.046464405072
3	188394	3118.321164061232	1.448018465003
3	188480	3119.455105059569	0.046464405072
3	188695	3123.521185114969	2.546464405072
3	188751	3123.961286062175	0.046464405072
3	188945	3127.67319111709	1.473787644758
3	188996	3128.484932356371	0.546464405072
3	189172	3132.218859638257	0.68221128809
3	189260	3133.686926753909	0.046464405072
3	189430	3136.973280902509	2.082817321375
3	189629	3140.569439561892	2.3104917091
3	189693	3141.669658280928	0.297486862601
3	189723	3142.028513405937	0.046464405072
3	190127	3149.795345633641	3.907678795722
3	190149	3150.027657823947	0.046464405072
3	190158	3150.178349286605	0.030976270048
3	190286	3152.110516884618	0.046464405072
3	190311	3152.167143299113	0.046464405072
3	190353	3152.744145919091	0.62346702505
3	190517	3156.029196008861	1.706695219605
3	190585	3156.669602205422	0.546464405072
3	190626	3157.523361566503	0.046464405072
3	190687	3158.555417712812	0.046464405072
3	190733	3159.14975260272	0.046464405072
3	191122	3166.217748039046	6.30372992199
3	191161	3166.810963332869	0.046464405072
3	191219	3167.900014549161	0.046464405072
3	191360	3170.1953481268	1.273792468471
3	191516	3172.751653466351	2.480225370591
3	191714	3176.475989503092	2.922449618164
3	191767	3177.474461944127	0.046464405072
3	191794	3177.904796698854	0.030976270048
3	191823	3178.077780944818	0.030976270048
3	191925	3179.419890795084	1.061952540096
3	191976	3180.005636613314	0.546464405072
3	192145	3182.725874783679	2.427045643772
3	192196	3183.589691247611	0.530976270048
3	192409	3187.735428635678	3.258591201987
3	192463	3188.853737614534	4.376900180843
3	192597	3191.05988763687	0.561952540096
3	192780	3194.664390377097	2.024314563502
3	192781	3194.671052083643	2.030976270048
3	192794	3194.756570303744	0.046464405072
3	192861	3195.46233547508	0.046464405072
3	192880	3195.683174576824	0.046464405072

