version 2
run General-0-20220510-19:21:56-72885
attr configname General
attr datetime 20220510-19:21:56
attr experiment General
attr inifile omnetpp.ini
attr iterationvars ""
attr iterationvarsf ""
attr measurement ""
attr network Raft
attr processid 72885
attr repetition 0
attr replication #0
attr resultdir results
attr runnumber 0
attr seedset 0
param Raft.numServers 4
param Raft.numClients 2
param Raft.client[*].numServers 5

vector 0 Raft.client[0] commandResponseTime:vector ETV
attr interpolationmode linear
attr title "Total response time of client request, vector"
attr unit s
vector 1 Raft.client[1] commandResponseTime:vector ETV
attr interpolationmode linear
attr title "Total response time of client request, vector"
attr unit s
0	38	943.084337399391	0.046464405072
0	87	1886.153186663758	0.030976270048
0	136	2829.237524063149	0.046464405072
0	192	3772.32186146254	0.046464405072
0	243	4715.406198861931	0.046464405072
0	294	5658.490536261322	0.046464405072
0	346	6601.574873660713	0.046464405072
0	398	7544.659211060104	0.046464405072
0	450	8487.743548459495	0.046464405072
0	502	9430.827885858886	0.046464405072
0	561	10373.912223258277	0.046464405072
0	613	11316.996560657668	0.046464405072
0	663	12260.080898057059	0.046464405072
0	715	13203.16523545645	0.046464405072
0	765	14146.249572855841	0.046464405072
0	824	15089.333910255232	0.046464405072
0	874	16032.418247654623	0.046464405072
0	926	16975.502585054014	0.046464405072
0	978	17918.586922453405	0.046464405072
0	1028	18861.671259852796	0.046464405072
0	1078	19804.755597252187	0.046464405072
0	1128	20747.839934651578	0.046464405072
0	1178	21690.924272050969	0.046464405072
0	1237	22634.00860945036	0.046464405072
0	1289	23577.092946849751	0.046464405072
0	1341	24520.177284249142	0.046464405072
0	1391	25463.246133513509	0.030976270048
0	1450	26406.3304709129	0.046464405072
0	1502	27349.414808312291	0.046464405072
0	1552	28292.483657576658	0.030976270048
0	1609	29235.567994976049	0.046464405072
0	1658	30178.65233237544	0.046464405072
0	1709	31121.736669774831	0.046464405072
0	1760	32064.821007174222	0.046464405072
0	1807	33007.889856438589	0.030976270048
0	1858	33950.97419383798	0.046464405072
0	1916	34894.058531237371	0.046464405072
0	1956	35837.142868636762	0.046464405072
0	2003	36780.211717901129	0.030976270048
0	2061	37723.29605530052	0.046464405072
0	2112	38666.380392699911	0.046464405072
0	2161	39609.449241964278	0.030976270048
0	2212	40552.533579363669	0.046464405072
0	2261	41495.61791676306	0.046464405072
0	2313	42438.702254162451	0.046464405072
0	2372	43381.786591561842	0.046464405072
0	2424	44324.870928961233	0.046464405072
0	2474	45267.9397782256	0.030976270048
0	2524	46211.024115624991	0.046464405072
0	2581	47154.108453024382	0.046464405072
0	2631	48097.192790423773	0.046464405072
0	2683	49040.277127823164	0.046464405072
0	2742	49983.361465222555	0.046464405072
0	2794	50926.445802621946	0.046464405072
0	2846	51869.530140021337	0.046464405072
0	2896	52812.614477420728	0.046464405072
0	2948	53755.698814820119	0.046464405072
0	3007	54698.78315221951	0.046464405072
0	3057	55641.852001483877	0.030976270048
0	3107	56584.920850748244	0.030976270048
0	3157	57527.989700012611	0.030976270048
0	3207	58471.074037412002	0.046464405072
0	3264	59414.158374811393	0.046464405072
0	3316	60357.242712210784	0.046464405072
0	3366	61300.311561475151	0.030976270048
0	3416	62243.380410739518	0.030976270048
0	3471	63186.449260003885	0.030976270048
0	3521	64129.518109268252	0.030976270048
0	3573	65072.602446667643	0.046464405072
0	3624	66015.686784067034	0.046464405072
0	3682	66958.771121466425	0.046464405072
0	3733	67901.855458865816	0.046464405072
0	3784	68844.939796265207	0.046464405072
0	3833	69788.024133664598	0.046464405072
0	3882	70731.092982928965	0.030976270048
0	3922	71674.177320328356	0.046464405072
0	3973	72617.261657727747	0.046464405072
0	4024	73560.345995127138	0.046464405072
0	4082	74503.430332526529	0.046464405072
0	4133	75446.51466992592	0.046464405072
0	4184	76389.599007325311	0.046464405072
0	4239	77332.667856589678	0.030976270048
0	4291	78275.752193989069	0.046464405072
0	4343	79218.83653138846	0.046464405072
0	4395	80161.920868787851	0.046464405072
0	4445	81104.989718052218	0.030976270048
0	4495	82048.074055451609	0.046464405072
0	4547	82991.158392851	0.046464405072
0	4606	83934.242730250391	0.046464405072
0	4658	84877.327067649782	0.046464405072
0	4710	85820.411405049173	0.046464405072
0	4760	86763.495742448564	0.046464405072
0	4810	87706.564591712931	0.030976270048
0	4867	88649.633440977298	0.030976270048
0	4917	89592.702290241665	0.030976270048
0	4969	90535.786627641056	0.046464405072
0	5021	91478.870965040447	0.046464405072
0	5073	92421.955302439838	0.046464405072
0	5123	93365.024151704205	0.030976270048
0	5173	94308.093000968572	0.030976270048
0	5223	95251.177338367963	0.046464405072
0	5275	96194.261675767354	0.046464405072
0	5334	97137.346013166745	0.046464405072
0	5386	98080.430350566136	0.046464405072
0	5438	99023.514687965527	0.046464405072
0	5488	99966.583537229894	0.030976270048
0	5537	100909.667874629285	0.046464405072
0	5588	101852.752212028676	0.046464405072
0	5646	102795.836549428067	0.046464405072
0	5695	103738.920886827458	0.046464405072
0	5744	104681.989736091825	0.030976270048
0	5795	105625.074073491216	0.046464405072
0	5835	106568.158410890607	0.046464405072
0	5891	107511.242748289998	0.046464405072
0	5942	108454.327085689389	0.046464405072
0	5984	109397.395934953756	0.030976270048
0	6040	110340.480272353147	0.046464405072
0	6091	111283.564609752538	0.046464405072
0	6142	112226.648947151929	0.046464405072
0	6199	113169.717796416296	0.030976270048
0	6251	114112.802133815687	0.046464405072
0	6303	115055.886471215078	0.046464405072
0	6355	115998.970808614469	0.046464405072
0	6407	116942.05514601386	0.046464405072
0	6466	117885.139483413251	0.046464405072
0	6518	118828.223820812642	0.046464405072
0	6570	119771.308158212033	0.046464405072
0	6620	120714.392495611424	0.046464405072
0	6670	121657.461344875791	0.030976270048
0	6720	122600.530194140158	0.030976270048
0	6777	123543.614531539549	0.046464405072
0	6827	124486.69886893894	0.046464405072
0	6877	125429.783206338331	0.046464405072
0	6927	126372.867543737722	0.046464405072
0	6979	127315.951881137113	0.046464405072
0	7029	128259.02073040148	0.030976270048
0	7086	129202.089579665847	0.030976270048
0	7136	130145.158428930214	0.030976270048
0	7188	131088.242766329605	0.046464405072
0	7240	132031.327103728996	0.046464405072
0	7297	132974.395952993363	0.030976270048
0	7347	133917.46480225773	0.030976270048
0	7397	134860.533651522097	0.030976270048
0	7449	135803.617988921488	0.046464405072
0	7503	136746.686838185855	0.030976270048
0	7552	137689.755687450222	0.030976270048
0	7603	138632.840024849613	0.046464405072
0	7654	139575.924362249004	0.046464405072
0	7705	140519.008699648395	0.046464405072
0	7754	141462.093037047786	0.046464405072
0	7794	142405.177374447177	0.046464405072
0	7852	143348.261711846568	0.046464405072
0	7901	144291.346049245959	0.046464405072
0	7952	145234.43038664535	0.046464405072
0	8003	146177.514724044741	0.046464405072
0	8054	147120.599061444132	0.046464405072
0	8104	148063.683398843523	0.046464405072
0	8156	149006.767736242914	0.046464405072
0	8215	149949.852073642305	0.046464405072
0	8267	150892.936411041696	0.046464405072
0	8319	151836.020748441087	0.046464405072
0	8369	152779.105085840478	0.046464405072
0	8421	153722.189423239869	0.046464405072
0	8473	154665.27376063926	0.046464405072
0	8523	155608.342609903627	0.030976270048
0	8575	156551.426947303018	0.046464405072
0	8627	157494.511284702409	0.046464405072
0	8684	158437.5956221018	0.046464405072
0	8734	159380.664471366167	0.030976270048
0	8784	160323.748808765558	0.046464405072
0	8834	161266.833146164949	0.046464405072
0	8891	162209.901995429316	0.030976270048
0	8941	163152.986332828707	0.046464405072
0	8991	164096.070670228098	0.046464405072
0	9048	165039.139519492465	0.030976270048
0	9096	165982.208368756832	0.030976270048
0	9148	166925.292706156223	0.046464405072
0	9200	167868.377043555614	0.046464405072
0	9250	168811.461380955005	0.046464405072
0	9300	169754.530230219372	0.030976270048
0	9359	170697.614567618763	0.046464405072
0	9408	171640.698905018154	0.046464405072
0	9459	172583.783242417545	0.046464405072
0	9508	173526.852091681912	0.030976270048
0	9559	174469.936429081303	0.046464405072
0	9608	175413.020766480694	0.046464405072
0	9657	176356.089615745061	0.030976270048
0	9704	177299.173953144452	0.046464405072
0	9751	178242.242802408819	0.030976270048
0	9802	179185.32713980821	0.046464405072
0	9849	180128.395989072577	0.030976270048
0	9900	181071.480326471968	0.046464405072
0	9949	182014.549175736335	0.030976270048
0	10005	182957.633513135726	0.046464405072
0	10055	183900.702362400093	0.030976270048
0	10107	184843.786699799484	0.046464405072
0	10159	185786.871037198875	0.046464405072
0	10211	186729.955374598266	0.046464405072
0	10263	187673.039711997657	0.046464405072
0	10315	188616.124049397048	0.046464405072
0	10367	189559.208386796439	0.046464405072
0	10426	190502.29272419583	0.046464405072
0	10476	191445.361573460197	0.030976270048
0	10528	192388.445910859588	0.046464405072
0	10580	193331.530248258979	0.046464405072
0	10637	194274.599097523346	0.030976270048
0	10687	195217.683434922737	0.046464405072
0	10739	196160.767772322128	0.046464405072
0	10791	197103.852109721519	0.046464405072
0	10843	198046.93644712091	0.046464405072
0	10895	198990.020784520301	0.046464405072
0	10947	199933.105121919692	0.046464405072
0	11006	200876.189459319083	0.046464405072
0	11056	201819.25830858345	0.030976270048
0	11108	202762.342645982841	0.046464405072
0	11160	203705.426983382232	0.046464405072
0	11217	204648.511320781623	0.046464405072
0	11267	205591.595658181014	0.046464405072
0	11319	206534.679995580405	0.046464405072
0	11366	207477.748844844772	0.030976270048
0	11422	208420.833182244163	0.046464405072
0	11473	209363.917519643554	0.046464405072
0	11524	210307.001857042945	0.046464405072
0	11575	211250.086194442336	0.046464405072
0	11626	212193.170531841727	0.046464405072
0	11664	213136.239381106094	0.030976270048
0	11715	214079.323718505485	0.046464405072
0	11771	215022.408055904876	0.046464405072
0	11818	215965.476905169243	0.030976270048
0	11869	216908.561242568634	0.046464405072
0	11918	217851.630091833001	0.030976270048
0	11969	218794.714429232392	0.046464405072
0	12026	219737.783278496759	0.030976270048
0	12078	220680.86761589615	0.046464405072
0	12130	221623.951953295541	0.046464405072
0	12180	222567.020802559908	0.030976270048
0	12230	223510.105139959299	0.046464405072
0	12287	224453.173989223666	0.030976270048
0	12337	225396.242838488033	0.030976270048
0	12387	226339.327175887424	0.046464405072
0	12437	227282.411513286815	0.046464405072
0	12487	228225.495850686206	0.046464405072
0	12544	229168.564699950573	0.030976270048
0	12592	230111.63354921494	0.030976270048
0	12644	231054.717886614331	0.046464405072
0	12696	231997.802224013722	0.046464405072
0	12748	232940.886561413113	0.046464405072
0	12803	233883.95541067748	0.030976270048
0	12855	234827.039748076871	0.046464405072
0	12907	235770.124085476262	0.046464405072
0	12957	236713.208422875653	0.046464405072
0	13009	237656.292760275044	0.046464405072
0	13059	238599.377097674435	0.046464405072
0	13118	239542.461435073826	0.046464405072
0	13170	240485.545772473217	0.046464405072
0	13220	241428.614621737584	0.030976270048
0	13271	242371.698959136975	0.046464405072
0	13322	243314.783296536366	0.046464405072
0	13371	244257.867633935757	0.046464405072
0	13422	245200.951971335148	0.046464405072
0	13480	246144.036308734539	0.046464405072
0	13531	247087.12064613393	0.046464405072
0	13569	248030.189495398297	0.030976270048
0	13620	248973.273832797688	0.046464405072
0	13669	249916.358170197079	0.046464405072
0	13727	250859.44250759647	0.046464405072
0	13778	251802.526844995861	0.046464405072
0	13827	252745.595694260228	0.030976270048
0	13876	253688.664543524595	0.030976270048
0	13928	254631.748880923986	0.046464405072
0	13978	255574.817730188353	0.030976270048
0	14037	256517.902067587744	0.046464405072
0	14089	257460.986404987135	0.046464405072
0	14139	258404.055254251502	0.030976270048
0	14189	259347.139591650893	0.046464405072
0	14241	260290.223929050284	0.046464405072
0	14291	261233.308266449675	0.046464405072
0	14341	262176.377115714042	0.030976270048
0	14400	263119.461453113433	0.046464405072
0	14452	264062.545790512824	0.046464405072
0	14500	265005.614639777191	0.030976270048
0	14552	265948.698977176582	0.046464405072
0	14604	266891.783314575973	0.046464405072
0	14656	267834.867651975364	0.046464405072
0	14704	268777.936501239731	0.030976270048
0	14756	269721.020838639122	0.046464405072
0	14815	270664.105176038513	0.046464405072
0	14867	271607.189513437904	0.046464405072
0	14919	272550.273850837295	0.046464405072
0	14971	273493.358188236686	0.046464405072
0	15021	274436.427037501053	0.030976270048
0	15071	275379.49588676542	0.030976270048
0	15130	276322.580224164811	0.046464405072
0	15182	277265.664561564202	0.046464405072
0	15233	278208.748898963593	0.046464405072
0	15284	279151.833236362984	0.046464405072
0	15342	280094.917573762375	0.046464405072
0	15393	281038.001911161766	0.046464405072
0	15444	281981.086248561157	0.046464405072
0	15493	282924.155097825524	0.030976270048
0	15533	283867.239435224915	0.046464405072
0	15591	284810.323772624306	0.046464405072
0	15642	285753.408110023697	0.046464405072
0	15693	286696.492447423088	0.046464405072
0	15744	287639.576784822479	0.046464405072
0	15795	288582.66112222187	0.046464405072
0	15851	289525.729971486237	0.030976270048
0	15899	290468.798820750604	0.030976270048
0	15949	291411.867670014971	0.030976270048
0	15999	292354.936519279338	0.030976270048
0	16049	293298.005368543705	0.030976270048
0	16097	294241.074217808072	0.030976270048
0	16147	295184.143067072439	0.030976270048
0	16206	296127.22740447183	0.046464405072
0	16254	297070.296253736197	0.030976270048
0	16306	298013.380591135588	0.046464405072
0	16354	298956.449440399955	0.030976270048
0	16413	299899.533777799346	0.046464405072
0	16456	300842.618115198737	0.046464405072
0	16515	301785.702452598128	0.046464405072
0	16563	302728.771301862495	0.030976270048
0	16613	303671.855639261886	0.046464405072
0	16665	304614.939976661277	0.046464405072
0	16717	305558.024314060668	0.046464405072
0	16767	306501.108651460059	0.046464405072
0	16826	307444.19298885945	0.046464405072
0	16878	308387.277326258841	0.046464405072
0	16928	309330.346175523208	0.030976270048
0	16978	310273.415024787575	0.030976270048
0	17028	311216.499362186966	0.046464405072
0	17085	312159.568211451333	0.030976270048
0	17132	313102.6370607157	0.030976270048
0	17183	314045.721398115091	0.046464405072
0	17234	314988.805735514482	0.046464405072
0	17290	315931.874584778849	0.030976270048
0	17337	316874.943434043216	0.030976270048
0	17388	317818.027771442607	0.046464405072
0	17426	318761.096620706974	0.030976270048
0	17477	319704.180958106365	0.046464405072
0	17526	320647.249807370732	0.030976270048
0	17584	321590.334144770123	0.046464405072
0	17633	322533.40299403449	0.030976270048
0	17684	323476.487331433881	0.046464405072
0	17735	324419.571668833272	0.046464405072
0	17787	325362.656006232663	0.046464405072
0	17844	326305.740343632054	0.046464405072
0	17896	327248.824681031445	0.046464405072
0	17948	328191.909018430836	0.046464405072
0	18000	329134.993355830227	0.046464405072
0	18052	330078.077693229618	0.046464405072
0	18102	331021.162030629009	0.046464405072
0	18161	331964.2463680284	0.046464405072
0	18213	332907.330705427791	0.046464405072
0	18261	333850.399554692158	0.030976270048
0	18313	334793.483892091549	0.046464405072
0	18365	335736.56822949094	0.046464405072
0	18417	336679.652566890331	0.046464405072
0	18467	337622.736904289722	0.046464405072
0	18519	338565.821241689113	0.046464405072
0	18569	339508.905579088504	0.046464405072
0	18628	340451.989916487895	0.046464405072
0	18680	341395.074253887286	0.046464405072
0	18732	342338.158591286677	0.046464405072
0	18784	343281.242928686068	0.046464405072
0	18832	344224.311777950435	0.030976270048
0	18884	345167.396115349826	0.046464405072
0	18936	346110.480452749217	0.046464405072
0	18995	347053.564790148608	0.046464405072
0	19047	347996.649127547999	0.046464405072
0	19098	348939.73346494739	0.046464405072
0	19147	349882.802314211757	0.030976270048
0	19203	350825.871163476124	0.030976270048
0	19250	351768.940012740491	0.030976270048
0	19297	352712.008862004858	0.030976270048
0	19355	353655.093199404249	0.046464405072
0	19395	354598.17753680364	0.046464405072
0	19446	355541.261874203031	0.046464405072
0	19497	356484.346211602422	0.046464405072
0	19548	357427.430549001813	0.046464405072
0	19604	358370.49939826618	0.030976270048
0	19655	359313.583735665571	0.046464405072
0	19704	360256.668073064962	0.046464405072
0	19761	361199.752410464353	0.046464405072
0	19813	362142.836747863744	0.046464405072
0	19865	363085.921085263135	0.046464405072
0	19917	364029.005422662526	0.046464405072
0	19967	364972.089760061917	0.046464405072
0	20024	365915.174097461308	0.046464405072
0	20076	366858.258434860699	0.046464405072
0	20126	367801.327284125066	0.030976270048
0	20178	368744.411621524457	0.046464405072
0	20235	369687.480470788824	0.030976270048
0	20287	370630.564808188215	0.046464405072
0	20339	371573.649145587606	0.046464405072
0	20389	372516.717994851973	0.030976270048
0	20441	373459.802332251364	0.046464405072
0	20493	374402.886669650755	0.046464405072
0	20552	375345.971007050146	0.046464405072
0	20604	376289.055344449537	0.046464405072
0	20656	377232.139681848928	0.046464405072
0	20706	378175.224019248319	0.046464405072
0	20763	379118.292868512686	0.030976270048
0	20815	380061.377205912077	0.046464405072
0	20865	381004.446055176444	0.030976270048
0	20917	381947.530392575835	0.046464405072
0	20967	382890.599241840202	0.030976270048
0	21019	383833.683579239593	0.046464405072
0	21077	384776.767916638984	0.046464405072
0	21128	385719.852254038375	0.046464405072
0	21179	386662.936591437766	0.046464405072
0	21237	387606.020928837157	0.046464405072
0	21279	388549.089778101524	0.030976270048
0	21326	389492.174115500915	0.046464405072
0	21370	390435.258452900306	0.046464405072
0	21428	391378.342790299697	0.046464405072
0	21477	392321.427127699088	0.046464405072
0	21526	393264.511465098479	0.046464405072
0	21575	394207.59580249787	0.046464405072
0	21624	395150.664651762237	0.030976270048
0	21676	396093.748989161628	0.046464405072
0	21726	397036.817838425995	0.030976270048
0	21776	397979.902175825386	0.046464405072
0	21826	398922.986513224777	0.046464405072
0	21883	399866.070850624168	0.046464405072
0	21935	400809.155188023559	0.046464405072
0	21987	401752.23952542295	0.046464405072
0	22039	402695.323862822341	0.046464405072
0	22091	403638.408200221732	0.046464405072
0	22143	404581.492537621123	0.046464405072
0	22202	405524.576875020514	0.046464405072
0	22254	406467.661212419905	0.046464405072
0	22306	407410.745549819296	0.046464405072
0	22358	408353.829887218687	0.046464405072
0	22408	409296.898736483054	0.030976270048
0	22460	410239.983073882445	0.046464405072
0	22519	411183.067411281836	0.046464405072
0	22569	412126.136260546203	0.030976270048
0	22621	413069.220597945594	0.046464405072
0	22671	414012.304935344985	0.046464405072
0	22721	414955.389272744376	0.046464405072
0	22771	415898.458122008743	0.030976270048
0	22821	416841.52697127311	0.030976270048
0	22880	417784.611308672501	0.046464405072
0	22932	418727.695646071892	0.046464405072
0	22983	419670.779983471283	0.046464405072
0	23037	420613.84883273565	0.030976270048
0	23088	421556.933170135041	0.046464405072
0	23139	422500.017507534432	0.046464405072
0	23190	423443.101844933823	0.046464405072
0	23248	424386.186182333214	0.046464405072
0	23288	425329.270519732605	0.046464405072
0	23337	426272.354857131996	0.046464405072
0	23388	427215.439194531387	0.046464405072
0	23446	428158.523531930778	0.046464405072
0	23495	429101.592381195145	0.030976270048
0	23546	430044.676718594536	0.046464405072
0	23595	430987.761055993927	0.046464405072
0	23654	431930.845393393318	0.046464405072
0	23704	432873.914242657685	0.030976270048
0	23754	433816.983091922052	0.030976270048
0	23806	434760.067429321443	0.046464405072
0	23858	435703.151766720834	0.046464405072
0	23917	436646.236104120225	0.046464405072
0	23969	437589.320441519616	0.046464405072
0	24019	438532.389290783983	0.030976270048
0	24069	439475.473628183374	0.046464405072
0	24121	440418.557965582765	0.046464405072
0	24176	441361.626814847132	0.030976270048
0	24226	442304.711152246523	0.046464405072
0	24278	443247.795489645914	0.046464405072
0	24328	444190.864338910281	0.030976270048
0	24380	445133.948676309672	0.046464405072
0	24432	446077.033013709063	0.046464405072
0	24484	447020.117351108454	0.046464405072
0	24541	447963.186200372821	0.030976270048
0	24591	448906.255049637188	0.030976270048
0	24643	449849.339387036579	0.046464405072
0	24695	450792.42372443597	0.046464405072
0	24752	451735.508061835361	0.046464405072
0	24804	452678.592399234752	0.046464405072
0	24854	453621.661248499119	0.030976270048
0	24911	454564.74558589851	0.046464405072
0	24960	455507.829923297901	0.046464405072
0	25011	456450.914260697292	0.046464405072
0	25067	457393.983109961659	0.030976270048
0	25116	458337.06744736105	0.046464405072
0	25165	459280.151784760441	0.046464405072
0	25205	460223.236122159832	0.046464405072
0	25254	461166.320459559223	0.046464405072
0	25303	462109.404796958614	0.046464405072
0	25352	463052.473646222981	0.030976270048
0	25410	463995.557983622372	0.046464405072
0	25461	464938.642321021763	0.046464405072
0	25510	465881.71117028613	0.030976270048
0	25562	466824.795507685521	0.046464405072
0	25621	467767.879845084912	0.046464405072
0	25673	468710.964182484303	0.046464405072
0	25725	469654.048519883694	0.046464405072
0	25777	470597.132857283085	0.046464405072
0	25827	471540.201706547452	0.030976270048
0	25877	472483.286043946843	0.046464405072
0	25929	473426.370381346234	0.046464405072
0	25979	474369.454718745625	0.046464405072
0	26031	475312.539056145016	0.046464405072
0	26090	476255.623393544407	0.046464405072
0	26140	477198.707730943798	0.046464405072
0	26192	478141.792068343189	0.046464405072
0	26244	479084.87640574258	0.046464405072
0	26294	480027.960743141971	0.046464405072
0	26351	480971.029592406338	0.030976270048
0	26403	481914.113929805729	0.046464405072
0	26455	482857.19826720512	0.046464405072
0	26505	483800.267116469487	0.030976270048
0	26557	484743.351453868878	0.046464405072
0	26609	485686.435791268269	0.046464405072
0	26661	486629.52012866766	0.046464405072
0	26720	487572.604466067051	0.046464405072
0	26772	488515.688803466442	0.046464405072
0	26822	489458.757652730809	0.030976270048
0	26873	490401.8419901302	0.046464405072
0	26924	491344.926327529591	0.046464405072
0	26980	492287.995176793958	0.030976270048
0	27029	493231.079514193349	0.046464405072
0	27080	494174.16385159274	0.046464405072
0	27131	495117.248188992131	0.046464405072
0	27171	496060.332526391522	0.046464405072
0	27229	497003.416863790913	0.046464405072
0	27280	497946.501201190304	0.046464405072
0	27329	498889.570050454671	0.030976270048
0	27380	499832.654387854062	0.046464405072
0	27429	500775.738725253453	0.046464405072
0	27485	501718.823062652844	0.046464405072
0	27535	502661.891911917211	0.030976270048
0	27587	503604.976249316602	0.046464405072
0	27639	504548.060586715993	0.046464405072
0	27689	505491.12943598036	0.030976270048
0	27739	506434.198285244727	0.030976270048
0	27798	507377.282622644118	0.046464405072
0	27850	508320.366960043509	0.046464405072
0	27900	509263.435809307876	0.030976270048
0	27950	510206.504658572243	0.030976270048
1	49	968.899613223088	0.046464405072
1	96	1937.783738311152	0.030976270048
1	152	2906.667863399216	0.030976270048
1	203	3875.567476622304	0.046464405072
1	254	4844.467089845392	0.046464405072
1	313	5813.36670306848	0.046464405072
1	365	6782.266316291568	0.046464405072
1	417	7751.165929514656	0.046464405072
1	469	8720.065542737744	0.046464405072
1	528	9688.965155960832	0.046464405072
1	580	10657.86476918392	0.046464405072
1	630	11626.748894271984	0.030976270048
1	689	12595.648507495072	0.046464405072
1	739	13564.532632583136	0.030976270048
1	791	14533.432245806224	0.046464405072
1	841	15502.316370894288	0.030976270048
1	893	16471.215984117376	0.046464405072
1	952	17440.115597340464	0.046464405072
1	1002	18408.999722428528	0.030976270048
1	1052	19377.883847516592	0.030976270048
1	1109	20346.767972604656	0.030976270048
1	1159	21315.65209769272	0.030976270048
1	1211	22284.551710915808	0.046464405072
1	1270	23253.451324138896	0.046464405072
1	1322	24222.350937361984	0.046464405072
1	1374	25191.250550585072	0.046464405072
1	1431	26160.15016380816	0.046464405072
1	1483	27129.049777031248	0.046464405072
1	1542	28097.949390254336	0.046464405072
1	1590	29066.8335153424	0.030976270048
1	1640	30035.717640430464	0.030976270048
1	1698	31004.617253653552	0.046464405072
1	1749	31973.51686687664	0.046464405072
1	1798	32942.400991964704	0.030976270048
1	1847	33911.300605187792	0.046464405072
1	1905	34880.20021841088	0.046464405072
1	1965	35849.084343498944	0.030976270048
1	2014	36817.983956722032	0.046464405072
1	2072	37786.88356994512	0.046464405072
1	2123	38755.783183168208	0.046464405072
1	2172	39724.682796391296	0.046464405072
1	2228	40693.56692147936	0.030976270048
1	2280	41662.466534702448	0.046464405072
1	2332	42631.366147925536	0.046464405072
1	2391	43600.265761148624	0.046464405072
1	2443	44569.165374371712	0.046464405072
1	2491	45538.049499459776	0.030976270048
1	2548	46506.93362454784	0.030976270048
1	2598	47475.817749635904	0.030976270048
1	2650	48444.717362858992	0.046464405072
1	2709	49413.61697608208	0.046464405072
1	2761	50382.516589305168	0.046464405072
1	2820	51351.416202528256	0.046464405072
1	2870	52320.30032761632	0.030976270048
1	2922	53289.199940839408	0.046464405072
1	2981	54258.099554062496	0.046464405072
1	3033	55226.999167285584	0.046464405072
1	3083	56195.898780508672	0.046464405072
1	3140	57164.79839373176	0.046464405072
1	3188	58133.682518819824	0.030976270048
1	3238	59102.566643907888	0.030976270048
1	3297	60071.466257130976	0.046464405072
1	3349	61040.365870354064	0.046464405072
1	3399	62009.265483577152	0.046464405072
1	3454	62978.149608665216	0.030976270048
1	3504	63947.049221888304	0.046464405072
1	3554	64915.948835111392	0.046464405072
1	3613	65884.84844833448	0.046464405072
1	3664	66853.748061557568	0.046464405072
1	3715	67822.647674780656	0.046464405072
1	3773	68791.547288003744	0.046464405072
1	3822	69760.431413091808	0.030976270048
1	3873	70729.331026314896	0.046464405072
1	3933	71698.230639537984	0.046464405072
1	3991	72667.130252761072	0.046464405072
1	4042	73636.02986598416	0.046464405072
1	4093	74604.929479207248	0.046464405072
1	4151	75573.829092430336	0.046464405072
1	4201	76542.7132175184	0.030976270048
1	4251	77511.612830741488	0.046464405072
1	4310	78480.512443964576	0.046464405072
1	4362	79449.412057187664	0.046464405072
1	4414	80418.311670410752	0.046464405072
1	4469	81387.195795498816	0.030976270048
1	4521	82356.095408721904	0.046464405072
1	4573	83324.995021944992	0.046464405072
1	4625	84293.89463516808	0.046464405072
1	4677	85262.794248391168	0.046464405072
1	4734	86231.678373479232	0.030976270048
1	4786	87200.57798670232	0.046464405072
1	4836	88169.477599925408	0.046464405072
1	4893	89138.377213148496	0.046464405072
1	4943	90107.276826371584	0.046464405072
1	4995	91076.176439594672	0.046464405072
1	5047	92045.07605281776	0.046464405072
1	5099	93013.975666040848	0.046464405072
1	5156	93982.875279263936	0.046464405072
1	5204	94951.759404352	0.030976270048
1	5256	95920.659017575088	0.046464405072
1	5315	96889.558630798176	0.046464405072
1	5367	97858.458244021264	0.046464405072
1	5419	98827.357857244352	0.046464405072
1	5471	99796.25747046744	0.046464405072
1	5526	100765.141595555504	0.030976270048
1	5577	101734.041208778592	0.046464405072
1	5628	102702.94082200168	0.046464405072
1	5684	103671.824947089744	0.030976270048
1	5735	104640.724560312832	0.046464405072
1	5784	105609.62417353592	0.046464405072
1	5844	106578.508298623984	0.030976270048
1	5902	107547.407911847072	0.046464405072
1	5953	108516.30752507016	0.046464405072
1	6000	109485.191650158224	0.030976270048
1	6051	110454.091263381312	0.046464405072
1	6109	111422.9908766044	0.046464405072
1	6161	112391.890489827488	0.046464405072
1	6218	113360.790103050576	0.046464405072
1	6270	114329.689716273664	0.046464405072
1	6322	115298.589329496752	0.046464405072
1	6374	116267.48894271984	0.046464405072
1	6433	117236.388555942928	0.046464405072
1	6485	118205.288169166016	0.046464405072
1	6537	119174.187782389104	0.046464405072
1	6587	120143.071907477168	0.030976270048
1	6646	121111.971520700256	0.046464405072
1	6696	122080.871133923344	0.046464405072
1	6744	123049.755259011408	0.030976270048
1	6801	124018.639384099472	0.030976270048
1	6851	124987.523509187536	0.030976270048
1	6908	125956.4076342756	0.030976270048
1	6960	126925.307247498688	0.046464405072
1	7012	127894.206860721776	0.046464405072
1	7062	128863.106473944864	0.046464405072
1	7119	129832.006087167952	0.046464405072
1	7169	130800.90570039104	0.046464405072
1	7221	131769.805313614128	0.046464405072
1	7280	132738.704926837216	0.046464405072
1	7330	133707.604540060304	0.046464405072
1	7380	134676.504153283392	0.046464405072
1	7437	135645.40376650648	0.046464405072
1	7487	136614.287891594544	0.030976270048
1	7536	137583.187504817632	0.046464405072
1	7585	138552.08711804072	0.046464405072
1	7643	139520.986731263808	0.046464405072
1	7694	140489.886344486896	0.046464405072
1	7743	141458.77046957496	0.030976270048
1	7812	142427.670082798048	0.046464405072
1	7861	143396.554207886112	0.030976270048
1	7912	144365.4538211092	0.046464405072
1	7963	145334.353434332288	0.046464405072
1	8014	146303.253047555376	0.046464405072
1	8071	147272.13717264344	0.030976270048
1	8123	148241.036785866528	0.046464405072
1	8175	149209.936399089616	0.046464405072
1	8234	150178.836012312704	0.046464405072
1	8286	151147.735625535792	0.046464405072
1	8336	152116.619750623856	0.030976270048
1	8388	153085.519363846944	0.046464405072
1	8440	154054.418977070032	0.046464405072
1	8499	155023.31859029312	0.046464405072
1	8549	155992.218203516208	0.046464405072
1	8601	156961.117816739296	0.046464405072
1	8651	157930.00194182736	0.030976270048
1	8710	158898.901555050448	0.046464405072
1	8758	159867.785680138512	0.030976270048
1	8808	160836.669805226576	0.030976270048
1	8867	161805.569418449664	0.046464405072
1	8915	162774.453543537728	0.030976270048
1	8972	163743.337668625792	0.030976270048
1	9024	164712.23728184888	0.046464405072
1	9072	165681.121406936944	0.030976270048
1	9129	166650.021020160032	0.046464405072
1	9181	167618.92063338312	0.046464405072
1	9231	168587.804758471184	0.030976270048
1	9283	169556.704371694272	0.046464405072
1	9340	170525.60398491736	0.046464405072
1	9390	171494.488110005424	0.030976270048
1	9441	172463.387723228512	0.046464405072
1	9492	173432.2873364516	0.046464405072
1	9548	174401.186949674688	0.046464405072
1	9597	175370.071074762752	0.030976270048
1	9648	176338.97068798584	0.046464405072
1	9713	177307.854813073904	0.030976270048
1	9762	178276.754426296992	0.046464405072
1	9811	179245.638551385056	0.030976270048
1	9867	180214.538164608144	0.046464405072
1	9918	181183.437777831232	0.046464405072
1	9965	182152.321902919296	0.030976270048
1	10017	183121.221516142384	0.046464405072
1	10074	184090.121129365472	0.046464405072
1	10126	185059.02074258856	0.046464405072
1	10178	186027.920355811648	0.046464405072
1	10230	186996.819969034736	0.046464405072
1	10289	187965.719582257824	0.046464405072
1	10341	188934.619195480912	0.046464405072
1	10393	189903.518808704	0.046464405072
1	10445	190872.418421927088	0.046464405072
1	10502	191841.318035150176	0.046464405072
1	10554	192810.217648373264	0.046464405072
1	10606	193779.117261596352	0.046464405072
1	10661	194748.001386684416	0.030976270048
1	10713	195716.900999907504	0.046464405072
1	10765	196685.800613130592	0.046464405072
1	10817	197654.70022635368	0.046464405072
1	10876	198623.599839576768	0.046464405072
1	10928	199592.499452799856	0.046464405072
1	10980	200561.399066022944	0.046464405072
1	11039	201530.298679246032	0.046464405072
1	11089	202499.19829246912	0.046464405072
1	11141	203468.097905692208	0.046464405072
1	11191	204436.982030780272	0.030976270048
1	11248	205405.866155868336	0.030976270048
1	11300	206374.765769091424	0.046464405072
1	11357	207343.649894179488	0.030976270048
1	11404	208312.534019267552	0.030976270048
1	11455	209281.43363249064	0.046464405072
1	11513	210250.333245713728	0.046464405072
1	11564	211219.232858936816	0.046464405072
1	11615	212188.132472159904	0.046464405072
1	11675	213157.032085382992	0.046464405072
1	11731	214125.916210471056	0.030976270048
1	11780	215094.80033555912	0.030976270048
1	11829	216063.699948782208	0.046464405072
1	11880	217032.599562005296	0.046464405072
1	11936	218001.499175228384	0.046464405072
1	11988	218970.398788451472	0.046464405072
1	12045	219939.29840167456	0.046464405072
1	12097	220908.198014897648	0.046464405072
1	12149	221877.097628120736	0.046464405072
1	12197	222845.9817532088	0.030976270048
1	12256	223814.881366431888	0.046464405072
1	12306	224783.780979654976	0.046464405072
1	12361	225752.66510474304	0.030976270048
1	12411	226721.549229831104	0.030976270048
1	12461	227690.433354919168	0.030976270048
1	12513	228659.332968142256	0.046464405072
1	12568	229628.21709323032	0.030976270048
1	12618	230597.116706453408	0.046464405072
1	12670	231566.016319676496	0.046464405072
1	12729	232534.915932899584	0.046464405072
1	12779	233503.800057987648	0.030976270048
1	12829	234472.699671210736	0.046464405072
1	12888	235441.599284433824	0.046464405072
1	12938	236410.483409521888	0.030976270048
1	12990	237379.383022744976	0.046464405072
1	13040	238348.26714783304	0.030976270048
1	13099	239317.166761056128	0.046464405072
1	13151	240286.066374279216	0.046464405072
1	13203	241254.965987502304	0.046464405072
1	13253	242223.865600725392	0.046464405072
1	13311	243192.76521394848	0.046464405072
1	13360	244161.649339036544	0.030976270048
1	13411	245130.548952259632	0.046464405072
1	13462	246099.44856548272	0.046464405072
1	13520	247068.348178705808	0.046464405072
1	13580	248037.247791928896	0.046464405072
1	13629	249006.13191701696	0.030976270048
1	13687	249975.031530240048	0.046464405072
1	13738	250943.931143463136	0.046464405072
1	13796	251912.830756686224	0.046464405072
1	13845	252881.730369909312	0.046464405072
1	13895	253850.6299831324	0.046464405072
1	13947	254819.529596355488	0.046464405072
1	13997	255788.429209578576	0.046464405072
1	14056	256757.328822801664	0.046464405072
1	14108	257726.228436024752	0.046464405072
1	14156	258695.112561112816	0.030976270048
1	14208	259664.012174335904	0.046464405072
1	14265	260632.896299423968	0.030976270048
1	14317	261601.795912647056	0.046464405072
1	14367	262570.695525870144	0.046464405072
1	14419	263539.595139093232	0.046464405072
1	14476	264508.479264181296	0.030976270048
1	14526	265477.378877404384	0.046464405072
1	14578	266446.278490627472	0.046464405072
1	14630	267415.17810385056	0.046464405072
1	14687	268384.062228938624	0.030976270048
1	14737	269352.961842161712	0.046464405072
1	14789	270321.8614553848	0.046464405072
1	14841	271290.761068607888	0.046464405072
1	14900	272259.660681830976	0.046464405072
1	14952	273228.560295054064	0.046464405072
1	15004	274197.459908277152	0.046464405072
1	15054	275166.35952150024	0.046464405072
1	15111	276135.259134723328	0.046464405072
1	15163	277104.158747946416	0.046464405072
1	15222	278073.058361169504	0.046464405072
1	15273	279041.957974392592	0.046464405072
1	15324	280010.85758761568	0.046464405072
1	15382	280979.757200838768	0.046464405072
1	15433	281948.656814061856	0.046464405072
1	15484	282917.556427284944	0.046464405072
1	15544	283886.456040508032	0.046464405072
1	15602	284855.35565373112	0.046464405072
1	15653	285824.255266954208	0.046464405072
1	15704	286793.154880177296	0.046464405072
1	15762	287762.054493400384	0.046464405072
1	15813	288730.954106623472	0.046464405072
1	15861	289699.838231711536	0.030976270048
1	15918	290668.737844934624	0.046464405072
1	15968	291637.637458157712	0.046464405072
1	16018	292606.5370713808	0.046464405072
1	16066	293575.421196468864	0.030976270048
1	16116	294544.320809691952	0.046464405072
1	16173	295513.22042291504	0.046464405072
1	16223	296482.104548003104	0.030976270048
1	16280	297451.004161226192	0.046464405072
1	16330	298419.888286314256	0.030976270048
1	16380	299388.787899537344	0.046464405072
1	16430	300357.672024625408	0.030976270048
1	16489	301326.571637848496	0.046464405072
1	16539	302295.45576293656	0.030976270048
1	16587	303264.339888024624	0.030976270048
1	16646	304233.239501247712	0.046464405072
1	16698	305202.1391144708	0.046464405072
1	16748	306171.023239558864	0.030976270048
1	16800	307139.922852781952	0.046464405072
1	16859	308108.82246600504	0.046464405072
1	16911	309077.722079228128	0.046464405072
1	16961	310046.621692451216	0.046464405072
1	17009	311015.50581753928	0.030976270048
1	17068	311984.405430762368	0.046464405072
1	17116	312953.289555850432	0.030976270048
1	17172	313922.18916907352	0.046464405072
1	17223	314891.088782296608	0.046464405072
1	17274	315859.988395519696	0.046464405072
1	17328	316828.87252060776	0.030976270048
1	17377	317797.772133830848	0.046464405072
1	17437	318766.671747053936	0.046464405072
1	17488	319735.571360277024	0.046464405072
1	17544	320704.470973500112	0.046464405072
1	17595	321673.3705867232	0.046464405072
1	17644	322642.270199946288	0.046464405072
1	17702	323611.169813169376	0.046464405072
1	17754	324580.069426392464	0.046464405072
1	17804	325548.953551480528	0.030976270048
1	17856	326517.853164703616	0.046464405072
1	17915	327486.752777926704	0.046464405072
1	17967	328455.652391149792	0.046464405072
1	18019	329424.55200437288	0.046464405072
1	18069	330393.436129460944	0.030976270048
1	18128	331362.335742684032	0.046464405072
1	18180	332331.23535590712	0.046464405072
1	18230	333300.119480995184	0.030976270048
1	18287	334269.019094218272	0.046464405072
1	18339	335237.91870744136	0.046464405072
1	18391	336206.818320664448	0.046464405072
1	18441	337175.702445752512	0.030976270048
1	18500	338144.6020589756	0.046464405072
1	18550	339113.486184063664	0.030976270048
1	18602	340082.385797286752	0.046464405072
1	18654	341051.28541050984	0.046464405072
1	18706	342020.185023732928	0.046464405072
1	18758	342989.084636956016	0.046464405072
1	18815	343957.96876204408	0.030976270048
1	18865	344926.868375267168	0.046464405072
1	18924	345895.767988490256	0.046464405072
1	18976	346864.667601713344	0.046464405072
1	19028	347833.567214936432	0.046464405072
1	19087	348802.46682815952	0.046464405072
1	19138	349771.366441382608	0.046464405072
1	19187	350740.266054605696	0.046464405072
1	19241	351709.15017969376	0.030976270048
1	19288	352678.034304781824	0.030976270048
1	19337	353646.933918004912	0.046464405072
1	19406	354615.833531228	0.046464405072
1	19457	355584.733144451088	0.046464405072
1	19515	356553.632757674176	0.046464405072
1	19566	357522.532370897264	0.046464405072
1	19615	358491.431984120352	0.046464405072
1	19671	359460.316109208416	0.030976270048
1	19721	360429.20023429648	0.030976270048
1	19780	361398.099847519568	0.046464405072
1	19832	362366.999460742656	0.046464405072
1	19884	363335.899073965744	0.046464405072
1	19934	364304.783199053808	0.030976270048
1	19991	365273.667324141872	0.030976270048
1	20043	366242.56693736496	0.046464405072
1	20095	367211.466550588048	0.046464405072
1	20152	368180.366163811136	0.046464405072
1	20204	369149.265777034224	0.046464405072
1	20261	370118.165390257312	0.046464405072
1	20313	371087.0650034804	0.046464405072
1	20365	372055.964616703488	0.046464405072
1	20415	373024.864229926576	0.046464405072
1	20474	373993.763843149664	0.046464405072
1	20526	374962.663456372752	0.046464405072
1	20578	375931.56306959584	0.046464405072
1	20637	376900.462682818928	0.046464405072
1	20687	377869.346807906992	0.030976270048
1	20739	378838.24642113008	0.046464405072
1	20789	379807.146034353168	0.046464405072
1	20848	380776.045647576256	0.046464405072
1	20898	381744.945260799344	0.046464405072
1	20957	382713.844874022432	0.046464405072
1	21007	383682.74448724552	0.046464405072
1	21059	384651.644100468608	0.046464405072
1	21117	385620.543713691696	0.046464405072
1	21168	386589.443326914784	0.046464405072
1	21219	387558.342940137872	0.046464405072
1	21270	388527.24255336096	0.046464405072
1	21337	389496.142166584048	0.046464405072
1	21388	390465.041779807136	0.046464405072
1	21437	391433.9259048952	0.030976270048
1	21486	392402.810029983264	0.030976270048
1	21535	393371.694155071328	0.030976270048
1	21593	394340.593768294416	0.046464405072
1	21643	395309.493381517504	0.046464405072
1	21695	396278.392994740592	0.046464405072
1	21743	397247.277119828656	0.030976270048
1	21793	398216.16124491672	0.030976270048
1	21843	399185.045370004784	0.030976270048
1	21902	400153.944983227872	0.046464405072
1	21954	401122.84459645096	0.046464405072
1	22006	402091.744209674048	0.046464405072
1	22065	403060.643822897136	0.046464405072
1	22117	404029.543436120224	0.046464405072
1	22169	404998.443049343312	0.046464405072
1	22228	405967.3426625664	0.046464405072
1	22280	406936.242275789488	0.046464405072
1	22332	407905.141889012576	0.046464405072
1	22384	408874.041502235664	0.046464405072
1	22441	409842.941115458752	0.046464405072
1	22493	410811.84072868184	0.046464405072
1	22545	411780.740341904928	0.046464405072
1	22595	412749.639955128016	0.046464405072
1	22652	413718.52408021608	0.030976270048
1	22702	414687.408205304144	0.030976270048
1	22754	415656.307818527232	0.046464405072
1	22811	416625.20743175032	0.046464405072
1	22861	417594.107044973408	0.046464405072
1	22913	418563.006658196496	0.046464405072
1	22972	419531.906271419584	0.046464405072
1	23021	420500.790396507648	0.030976270048
1	23070	421469.690009730736	0.046464405072
1	23128	422438.589622953824	0.046464405072
1	23179	423407.489236176912	0.046464405072
1	23230	424376.3888494	0.046464405072
1	23297	425345.272974488064	0.030976270048
1	23348	426314.172587711152	0.046464405072
1	23406	427283.07220093424	0.046464405072
1	23457	428251.971814157328	0.046464405072
1	23506	429220.871427380416	0.046464405072
1	23562	430189.75555246848	0.030976270048
1	23614	431158.655165691568	0.046464405072
1	23673	432127.554778914656	0.046464405072
1	23723	433096.454392137744	0.046464405072
1	23773	434065.354005360832	0.046464405072
1	23825	435034.25361858392	0.046464405072
1	23884	436003.153231807008	0.046464405072
1	23936	436972.052845030096	0.046464405072
1	23995	437940.952458253184	0.046464405072
1	24043	438909.836583341248	0.030976270048
1	24095	439878.736196564336	0.046464405072
1	24152	440847.6203216524	0.030976270048
1	24200	441816.504446740464	0.030976270048
1	24252	442785.404059963552	0.046464405072
1	24304	443754.30367318664	0.046464405072
1	24361	444723.203286409728	0.046464405072
1	24413	445692.102899632816	0.046464405072
1	24465	446661.002512855904	0.046464405072
1	24517	447629.902126078992	0.046464405072
1	24567	448598.80173930208	0.046464405072
1	24624	449567.701352525168	0.046464405072
1	24676	450536.600965748256	0.046464405072
1	24733	451505.48509083632	0.030976270048
1	24785	452474.384704059408	0.046464405072
1	24844	453443.284317282496	0.046464405072
1	24892	454412.16844237056	0.030976270048
1	24942	455381.052567458624	0.030976270048
1	25000	456349.952180681712	0.046464405072
1	25058	457318.8517939048	0.046464405072
1	25105	458287.735918992864	0.030976270048
1	25154	459256.620044080928	0.030976270048
1	25214	460225.504169168992	0.030976270048
1	25270	461194.388294257056	0.030976270048
1	25321	462163.287907480144	0.046464405072
1	25370	463132.187520703232	0.046464405072
1	25421	464101.08713392632	0.046464405072
1	25472	465069.986747149408	0.046464405072
1	25529	466038.886360372496	0.046464405072
1	25581	467007.785973595584	0.046464405072
1	25633	467976.685586818672	0.046464405072
1	25692	468945.58520004176	0.046464405072
1	25744	469914.484813264848	0.046464405072
1	25796	470883.384426487936	0.046464405072
1	25844	471852.268551576	0.030976270048
1	25896	472821.168164799088	0.046464405072
1	25953	473790.052289887152	0.030976270048
1	26005	474758.95190311024	0.046464405072
1	26057	475727.851516333328	0.046464405072
1	26107	476696.735641421392	0.030976270048
1	26166	477665.63525464448	0.046464405072
1	26218	478634.534867867568	0.046464405072
1	26268	479603.418992955632	0.030976270048
1	26327	480572.31860617872	0.046464405072
1	26377	481541.218219401808	0.046464405072
1	26429	482510.117832624896	0.046464405072
1	26481	483479.017445847984	0.046464405072
1	26538	484447.917059071072	0.046464405072
1	26590	485416.81667229416	0.046464405072
1	26642	486385.716285517248	0.046464405072
1	26701	487354.615898740336	0.046464405072
1	26753	488323.515511963424	0.046464405072
1	26805	489292.415125186512	0.046464405072
1	26855	490261.3147384096	0.046464405072
1	26913	491230.214351632688	0.046464405072
1	26964	492199.113964855776	0.046464405072
1	27011	493167.99808994384	0.030976270048
1	27069	494136.897703166928	0.046464405072
1	27120	495105.797316390016	0.046464405072
1	27189	496074.696929613104	0.046464405072
1	27240	497043.596542836192	0.046464405072
1	27291	498012.49615605928	0.046464405072
1	27340	498981.395769282368	0.046464405072
1	27396	499950.279894370432	0.030976270048
1	27445	500919.164019458496	0.030976270048
1	27497	501888.063632681584	0.046464405072
1	27554	502856.963245904672	0.046464405072
1	27606	503825.86285912776	0.046464405072
1	27658	504794.762472350848	0.046464405072
1	27708	505763.662085573936	0.046464405072
1	27765	506732.561698797024	0.046464405072
1	27817	507701.461312020112	0.046464405072
1	27869	508670.3609252432	0.046464405072
1	27926	509639.260538466288	0.046464405072

