version 2
run General-0-20220428-11:05:42-7144
attr configname General
attr datetime 20220428-11:05:42
attr experiment General
attr inifile omnetpp.ini
attr iterationvars ""
attr iterationvarsf ""
attr measurement ""
attr network Raft
attr processid 7144
attr repetition 0
attr replication #0
attr resultdir results
attr runnumber 0
attr seedset 0
param Raft.numServers 4
param Raft.numClients 2
param Raft.client[*].numServers 5

vector 0 Raft.client[0] commandResponseTime:vector ETV
attr interpolationmode linear
attr title "Total response time of client request, vector"
attr unit s
vector 1 Raft.client[1] commandResponseTime:vector ETV
attr interpolationmode linear
attr title "Total response time of client request, vector"
attr unit s
0	38	943.084337399391	0.046464405072
0	81	1886.137698528734	0.015488135024
0	122	2829.191059658077	0.015488135024
0	167	3772.259908922444	0.030976270048
0	210	4715.313270051787	0.015488135024
0	255	5658.382119316154	0.030976270048
0	307	6601.450968580521	0.030976270048
0	352	7544.519817844888	0.030976270048
0	395	8487.573178974231	0.015488135024
0	440	9430.642028238598	0.030976270048
0	483	10373.695389367941	0.015488135024
0	528	11316.764238632308	0.030976270048
0	571	12259.833087896675	0.030976270048
0	614	13202.886449026018	0.015488135024
0	664	14145.955298290385	0.030976270048
0	709	15089.024147554752	0.030976270048
0	752	16032.077508684095	0.015488135024
0	795	16975.130869813438	0.015488135024
0	838	17918.199719077805	0.030976270048
0	888	18861.253080207148	0.015488135024
0	933	19804.321929471515	0.030976270048
0	976	20747.375290600858	0.015488135024
0	1021	21690.444139865225	0.030976270048
0	1073	22633.512989129592	0.030976270048
0	1118	23576.581838393959	0.030976270048
0	1163	24519.650687658326	0.030976270048
0	1208	25462.719536922693	0.030976270048
0	1253	26405.78838618706	0.030976270048
0	1298	27348.857235451427	0.030976270048
0	1343	28291.926084715794	0.030976270048
0	1395	29234.994933980161	0.030976270048
0	1439	30178.063783244528	0.030976270048
0	1484	31121.132632508895	0.030976270048
0	1527	32064.185993638238	0.015488135024
0	1570	33007.254842902605	0.030976270048
0	1615	33950.323692166972	0.030976270048
0	1667	34893.392541431339	0.030976270048
0	1705	35836.461390695706	0.030976270048
0	1755	36779.545728095097	0.046464405072
0	1800	37722.630065494488	0.046464405072
0	1845	38665.714402893879	0.046464405072
0	1890	39608.79874029327	0.046464405072
0	1942	40551.883077692661	0.046464405072
0	1985	41494.951926957028	0.030976270048
0	2028	42438.036264356419	0.046464405072
0	2071	43381.12060175581	0.046464405072
0	2116	44324.204939155201	0.046464405072
0	2159	45267.289276554592	0.046464405072
0	2211	46210.373613953983	0.046464405072
0	2254	47153.457951353374	0.046464405072
0	2297	48096.542288752765	0.046464405072
0	2340	49039.611138017132	0.030976270048
0	2392	49982.695475416523	0.046464405072
0	2435	50925.779812815914	0.046464405072
0	2480	51868.864150215305	0.046464405072
0	2525	52811.948487614696	0.046464405072
0	2568	53755.032825014087	0.046464405072
0	2620	54698.117162413478	0.046464405072
0	2665	55641.201499812869	0.046464405072
0	2710	56584.28583721226	0.046464405072
0	2755	57527.370174611651	0.046464405072
0	2798	58470.454512011042	0.046464405072
0	2846	59413.523361275409	0.030976270048
0	2891	60356.6076986748	0.046464405072
0	2936	61299.692036074191	0.046464405072
0	2988	62242.776373473582	0.046464405072
0	3031	63185.860710872973	0.046464405072
0	3074	64128.92956013734	0.030976270048
0	3119	65072.013897536731	0.046464405072
0	3162	66015.082746801098	0.030976270048
0	3214	66958.167084200489	0.046464405072
0	3259	67901.25142159988	0.046464405072
0	3304	68844.335758999271	0.046464405072
0	3349	69787.420096398662	0.046464405072
0	3397	70730.488945663029	0.030976270048
0	3437	71673.57328306242	0.046464405072
0	3482	72616.657620461811	0.046464405072
0	3527	73559.741957861202	0.046464405072
0	3577	74502.810807125569	0.030976270048
0	3622	75445.89514452496	0.046464405072
0	3667	76388.979481924351	0.046464405072
0	3719	77332.063819323742	0.046464405072
0	3764	78275.148156723133	0.046464405072
0	3807	79218.232494122524	0.046464405072
0	3850	80161.316831521915	0.046464405072
0	3900	81104.401168921306	0.046464405072
0	3945	82047.485506320697	0.046464405072
0	3988	82990.554355585064	0.030976270048
0	4031	83933.638692984455	0.046464405072
0	4074	84876.707542248822	0.030976270048
0	4126	85819.791879648213	0.046464405072
0	4169	86762.876217047604	0.046464405072
0	4214	87705.960554446995	0.046464405072
0	4259	88649.044891846386	0.046464405072
0	4304	89592.129229245777	0.046464405072
0	4349	90535.213566645168	0.046464405072
0	4401	91478.297904044559	0.046464405072
0	4446	92421.38224144395	0.046464405072
0	4491	93364.466578843341	0.046464405072
0	4536	94307.550916242732	0.046464405072
0	4579	95250.635253642123	0.046464405072
0	4624	96193.719591041514	0.046464405072
0	4667	97136.803928440905	0.046464405072
0	4710	98079.888265840296	0.046464405072
0	4760	99022.972603239687	0.046464405072
0	4805	99966.056940639078	0.046464405072
0	4850	100909.141278038469	0.046464405072
0	4893	101852.22561543786	0.046464405072
0	4943	102795.309952837251	0.046464405072
0	4988	103738.394290236642	0.046464405072
0	5033	104681.478627636033	0.046464405072
0	5076	105624.562965035424	0.046464405072
0	5116	106567.647302434815	0.046464405072
0	5168	107510.731639834206	0.046464405072
0	5211	108453.800489098573	0.030976270048
0	5254	109396.86933836294	0.030976270048
0	5295	110339.938187627307	0.030976270048
0	5345	111283.022525026698	0.046464405072
0	5390	112226.106862426089	0.046464405072
0	5433	113169.175711690456	0.030976270048
0	5476	114112.260049089847	0.046464405072
0	5528	115055.344386489238	0.046464405072
0	5571	115998.413235753605	0.030976270048
0	5616	116941.497573152996	0.046464405072
0	5657	117884.566422417363	0.030976270048
0	5700	118827.63527168173	0.030976270048
0	5743	119770.704120946097	0.030976270048
0	5795	120713.788458345488	0.046464405072
0	5840	121656.872795744879	0.046464405072
0	5883	122599.95713314427	0.046464405072
0	5926	123543.025982408637	0.030976270048
0	5971	124486.110319808028	0.046464405072
0	6016	125429.194657207419	0.046464405072
0	6059	126372.27899460681	0.046464405072
0	6111	127315.363332006201	0.046464405072
0	6152	128258.432181270568	0.030976270048
0	6197	129201.516518669959	0.046464405072
0	6249	130144.60085606935	0.046464405072
0	6290	131087.669705333717	0.030976270048
0	6335	132030.754042733108	0.046464405072
0	6380	132973.838380132499	0.046464405072
0	6425	133916.92271753189	0.046464405072
0	6473	134859.991566796257	0.030976270048
0	6516	135803.060416060624	0.030976270048
0	6559	136746.144753460015	0.046464405072
0	6604	137689.229090859406	0.046464405072
0	6656	138632.313428258797	0.046464405072
0	6699	139575.397765658188	0.046464405072
0	6744	140518.482103057579	0.046464405072
0	6787	141461.550952321946	0.030976270048
0	6827	142404.635289721337	0.046464405072
0	6872	143347.719627120728	0.046464405072
0	6922	144290.803964520119	0.046464405072
0	6967	145233.88830191951	0.046464405072
0	7012	146176.972639318901	0.046464405072
0	7057	147120.056976718292	0.046464405072
0	7102	148063.141314117683	0.046464405072
0	7154	149006.225651517074	0.046464405072
0	7199	149949.309988916465	0.046464405072
0	7242	150892.394326315856	0.046464405072
0	7285	151835.463175580223	0.030976270048
0	7330	152778.547512979614	0.046464405072
0	7378	153721.616362243981	0.030976270048
0	7423	154664.700699643372	0.046464405072
0	7468	155607.785037042763	0.046464405072
0	7511	156550.869374442154	0.046464405072
0	7554	157493.953711841545	0.046464405072
0	7599	158437.038049240936	0.046464405072
0	7642	159380.122386640327	0.046464405072
0	7685	160323.206724039718	0.046464405072
0	7737	161266.291061439109	0.046464405072
0	7780	162209.3753988385	0.046464405072
0	7823	163152.444248102867	0.030976270048
0	7866	164095.513097367234	0.030976270048
0	7918	165038.597434766625	0.046464405072
0	7963	165981.681772166016	0.046464405072
0	8006	166924.750621430383	0.030976270048
0	8049	167867.834958829774	0.046464405072
0	8094	168810.919296229165	0.046464405072
0	8137	169754.003633628556	0.046464405072
0	8182	170697.087971027947	0.046464405072
0	8225	171640.156820292314	0.030976270048
0	8270	172583.241157691705	0.046464405072
0	8320	173526.310006956072	0.030976270048
0	8363	174469.378856220439	0.030976270048
0	8406	175412.46319361983	0.046464405072
0	8456	176355.547531019221	0.046464405072
0	8494	177298.616380283588	0.030976270048
0	8535	178241.685229547955	0.030976270048
0	8580	179184.769566947346	0.046464405072
0	8625	180127.853904346737	0.046464405072
0	8675	181070.938241746128	0.046464405072
0	8718	182014.007091010495	0.030976270048
0	8761	182957.075940274862	0.030976270048
0	8806	183900.160277674253	0.046464405072
0	8858	184843.244615073644	0.046464405072
0	8901	185786.313464338011	0.030976270048
0	8944	186729.397801737402	0.046464405072
0	8989	187672.482139136793	0.046464405072
0	9032	188615.566476536184	0.046464405072
0	9075	189558.635325800551	0.030976270048
0	9120	190501.719663199942	0.046464405072
0	9161	191444.788512464309	0.030976270048
0	9206	192387.8728498637	0.046464405072
0	9258	193330.957187263091	0.046464405072
0	9303	194274.041524662482	0.046464405072
0	9348	195217.125862061873	0.046464405072
0	9393	196160.210199461264	0.046464405072
0	9438	197103.294536860655	0.046464405072
0	9481	198046.363386125022	0.030976270048
0	9526	198989.447723524413	0.046464405072
0	9569	199932.51657278878	0.030976270048
0	9612	200875.585422053147	0.030976270048
0	9655	201818.669759452538	0.046464405072
0	9707	202761.754096851929	0.046464405072
0	9752	203704.83843425132	0.046464405072
0	9797	204647.922771650711	0.046464405072
0	9842	205591.007109050102	0.046464405072
0	9887	206534.091446449493	0.046464405072
0	9932	207477.175783848884	0.046464405072
0	9977	208420.260121248275	0.046464405072
0	10029	209363.344458647666	0.046464405072
0	10074	210306.428796047057	0.046464405072
0	10117	211249.497645311424	0.030976270048
0	10158	212192.566494575791	0.030976270048
0	10198	213135.650831975182	0.046464405072
0	10241	214078.719681239549	0.030976270048
0	10286	215021.80401863894	0.046464405072
0	10336	215964.888356038331	0.046464405072
0	10381	216907.972693437722	0.046464405072
0	10426	217851.057030837113	0.046464405072
0	10471	218794.141368236504	0.046464405072
0	10514	219737.210217500871	0.030976270048
0	10557	220680.294554900262	0.046464405072
0	10609	221623.378892299653	0.046464405072
0	10654	222566.463229699044	0.046464405072
0	10699	223509.547567098435	0.046464405072
0	10744	224452.631904497826	0.046464405072
0	10796	225395.716241897217	0.046464405072
0	10841	226338.800579296608	0.046464405072
0	10886	227281.884916695999	0.046464405072
0	10931	228224.96925409539	0.046464405072
0	10972	229168.038103359757	0.030976270048
0	11015	230111.106952624124	0.030976270048
0	11065	231054.191290023515	0.046464405072
0	11110	231997.275627422906	0.046464405072
0	11153	232940.359964822297	0.046464405072
0	11198	233883.444302221688	0.046464405072
0	11248	234826.528639621079	0.046464405072
0	11293	235769.61297702047	0.046464405072
0	11338	236712.697314419861	0.046464405072
0	11381	237655.766163684228	0.030976270048
0	11424	238598.835012948595	0.030976270048
0	11469	239541.919350347986	0.046464405072
0	11521	240485.003687747377	0.046464405072
0	11566	241428.088025146768	0.046464405072
0	11607	242371.156874411135	0.030976270048
0	11650	243314.241211810526	0.046464405072
0	11700	244257.325549209917	0.046464405072
0	11745	245200.409886609308	0.046464405072
0	11790	246143.494224008699	0.046464405072
0	11833	247086.563073273066	0.030976270048
0	11873	248029.647410672457	0.046464405072
0	11923	248972.716259936824	0.030976270048
0	11968	249915.800597336215	0.046464405072
0	12013	250858.884934735606	0.046464405072
0	12058	251801.969272134997	0.046464405072
0	12101	252745.038121399364	0.030976270048
0	12146	253688.122458798755	0.046464405072
0	12189	254631.191308063122	0.030976270048
0	12241	255574.275645462513	0.046464405072
0	12286	256517.359982861904	0.046464405072
0	12331	257460.444320261295	0.046464405072
0	12374	258403.513169525662	0.030976270048
0	12419	259346.597506925053	0.046464405072
0	12464	260289.681844324444	0.046464405072
0	12505	261232.750693588811	0.030976270048
0	12550	262175.835030988202	0.046464405072
0	12600	263118.919368387593	0.046464405072
0	12645	264062.003705786984	0.046464405072
0	12690	265005.088043186375	0.046464405072
0	12735	265948.172380585766	0.046464405072
0	12785	266891.256717985157	0.046464405072
0	12828	267834.325567249524	0.030976270048
0	12871	268777.394416513891	0.030976270048
0	12916	269720.478753913282	0.046464405072
0	12961	270663.563091312673	0.046464405072
0	13013	271606.647428712064	0.046464405072
0	13058	272549.731766111455	0.046464405072
0	13101	273492.816103510846	0.046464405072
0	13146	274435.900440910237	0.046464405072
0	13191	275378.984778309628	0.046464405072
0	13234	276322.053627573995	0.030976270048
0	13279	277265.137964973386	0.046464405072
0	13331	278208.222302372777	0.046464405072
0	13374	279151.306639772168	0.046464405072
0	13419	280094.390977171559	0.046464405072
0	13469	281037.47531457095	0.046464405072
0	13512	281980.559651970341	0.046464405072
0	13557	282923.643989369732	0.046464405072
0	13597	283866.728326769123	0.046464405072
0	13640	284809.812664168514	0.046464405072
0	13683	285752.881513432881	0.030976270048
0	13726	286695.950362697248	0.030976270048
0	13767	287639.019211961615	0.030976270048
0	13819	288582.103549361006	0.046464405072
0	13864	289525.187886760397	0.046464405072
0	13909	290468.272224159788	0.046464405072
0	13952	291411.341073424155	0.030976270048
0	13997	292354.425410823546	0.046464405072
0	14049	293297.509748222937	0.046464405072
0	14092	294240.594085622328	0.046464405072
0	14137	295183.678423021719	0.046464405072
0	14180	296126.76276042111	0.046464405072
0	14232	297069.847097820501	0.046464405072
0	14275	298012.915947084868	0.030976270048
0	14320	298956.000284484259	0.046464405072
0	14372	299899.08462188365	0.046464405072
0	14417	300842.168959283041	0.046464405072
0	14460	301785.253296682432	0.046464405072
0	14505	302728.337634081823	0.046464405072
0	14557	303671.421971481214	0.046464405072
0	14602	304614.506308880605	0.046464405072
0	14643	305557.575158144972	0.030976270048
0	14695	306500.659495544363	0.046464405072
0	14740	307443.743832943754	0.046464405072
0	14785	308386.828170343145	0.046464405072
0	14828	309329.897019607512	0.030976270048
0	14873	310272.981357006903	0.046464405072
0	14918	311216.065694406294	0.046464405072
0	14968	312159.134543670661	0.030976270048
0	15011	313102.203392935028	0.030976270048
0	15056	314045.287730334419	0.046464405072
0	15101	314988.37206773381	0.046464405072
0	15146	315931.456405133201	0.046464405072
0	15198	316874.540742532592	0.046464405072
0	15241	317817.625079931983	0.046464405072
0	15281	318760.709417331374	0.046464405072
0	15329	319703.778266595741	0.030976270048
0	15374	320646.862603995132	0.046464405072
0	15417	321589.931453259499	0.030976270048
0	15460	322533.01579065889	0.046464405072
0	15512	323476.100128058281	0.046464405072
0	15557	324419.184465457672	0.046464405072
0	15600	325362.268802857063	0.046464405072
0	15645	326305.353140256454	0.046464405072
0	15688	327248.421989520821	0.030976270048
0	15731	328191.490838785188	0.030976270048
0	15781	329134.575176184579	0.046464405072
0	15824	330077.644025448946	0.030976270048
0	15869	331020.728362848337	0.046464405072
0	15912	331963.812700247728	0.046464405072
0	15964	332906.897037647119	0.046464405072
0	16009	333849.98137504651	0.046464405072
0	16054	334793.065712445901	0.046464405072
0	16097	335736.150049845292	0.046464405072
0	16142	336679.234387244683	0.046464405072
0	16187	337622.318724644074	0.046464405072
0	16237	338565.403062043465	0.046464405072
0	16280	339508.487399442856	0.046464405072
0	16325	340451.571736842247	0.046464405072
0	16377	341394.656074241638	0.046464405072
0	16420	342337.724923506005	0.030976270048
0	16465	343280.809260905396	0.046464405072
0	16510	344223.893598304787	0.046464405072
0	16555	345166.977935704178	0.046464405072
0	16607	346110.062273103569	0.046464405072
0	16650	347053.14661050296	0.046464405072
0	16693	347996.215459767327	0.030976270048
0	16736	348939.299797166718	0.046464405072
0	16788	349882.384134566109	0.046464405072
0	16833	350825.4684719655	0.046464405072
0	16878	351768.552809364891	0.046464405072
0	16921	352711.621658629258	0.030976270048
0	16973	353654.705996028649	0.046464405072
0	17013	354597.79033342804	0.046464405072
0	17054	355540.859182692407	0.030976270048
0	17099	356483.943520091798	0.046464405072
0	17144	357427.027857491189	0.046464405072
0	17192	358370.096706755556	0.030976270048
0	17237	359313.181044154947	0.046464405072
0	17280	360256.249893419314	0.030976270048
0	17323	361199.318742683681	0.030976270048
0	17368	362142.403080083072	0.046464405072
0	17420	363085.487417482463	0.046464405072
0	17463	364028.55626674683	0.030976270048
0	17506	364971.625116011197	0.030976270048
0	17551	365914.709453410588	0.046464405072
0	17594	366857.793790809979	0.046464405072
0	17637	367800.862640074346	0.030976270048
0	17682	368743.946977473737	0.046464405072
0	17725	369687.031314873128	0.046464405072
0	17766	370630.100164137495	0.030976270048
0	17816	371573.184501536886	0.046464405072
0	17861	372516.268838936277	0.046464405072
0	17906	373459.353176335668	0.046464405072
0	17949	374402.422025600035	0.030976270048
0	17992	375345.506362999426	0.046464405072
0	18037	376288.590700398817	0.046464405072
0	18082	377231.675037798208	0.046464405072
0	18127	378174.759375197599	0.046464405072
0	18179	379117.84371259699	0.046464405072
0	18222	380060.928049996381	0.046464405072
0	18265	381003.996899260748	0.030976270048
0	18310	381947.081236660139	0.046464405072
0	18353	382890.150085924506	0.030976270048
0	18403	383833.218935188873	0.030976270048
0	18446	384776.28778445324	0.030976270048
0	18491	385719.372121852631	0.046464405072
0	18534	386662.440971116998	0.030976270048
0	18579	387605.525308516389	0.046464405072
0	18622	388548.594157780756	0.030976270048
0	18674	389491.678495180147	0.046464405072
0	18712	390434.747344444514	0.030976270048
0	18757	391377.831681843905	0.046464405072
0	18802	392320.916019243296	0.046464405072
0	18847	393264.000356642687	0.046464405072
0	18897	394207.069205907054	0.030976270048
0	18940	395150.153543306445	0.046464405072
0	18983	396093.222392570812	0.030976270048
0	19028	397036.306729970203	0.046464405072
0	19078	397979.37557923457	0.030976270048
0	19123	398922.459916633961	0.046464405072
0	19168	399865.544254033352	0.046464405072
0	19220	400808.628591432743	0.046464405072
0	19263	401751.69744069711	0.030976270048
0	19308	402694.781778096501	0.046464405072
0	19353	403637.866115495892	0.046464405072
0	19403	404580.950452895283	0.046464405072
0	19444	405524.01930215965	0.030976270048
0	19489	406467.103639559041	0.046464405072
0	19532	407410.187976958432	0.046464405072
0	19582	408353.256826222799	0.030976270048
0	19627	409296.34116362219	0.046464405072
0	19670	410239.425501021581	0.046464405072
0	19715	411182.509838420972	0.046464405072
0	19760	412125.594175820363	0.046464405072
0	19803	413068.66302508473	0.030976270048
0	19853	414011.747362484121	0.046464405072
0	19898	414954.831699883512	0.046464405072
0	19943	415897.916037282903	0.046464405072
0	19988	416841.000374682294	0.046464405072
0	20033	417784.084712081685	0.046464405072
0	20085	418727.169049481076	0.046464405072
0	20130	419670.253386880467	0.046464405072
0	20175	420613.337724279858	0.046464405072
0	20218	421556.406573544225	0.030976270048
0	20263	422499.490910943616	0.046464405072
0	20311	423442.559760207983	0.030976270048
0	20354	424385.644097607374	0.046464405072
0	20394	425328.728435006765	0.046464405072
0	20439	426271.812772406156	0.046464405072
0	20484	427214.897109805547	0.046464405072
0	20536	428157.981447204938	0.046464405072
0	20579	429101.065784604329	0.046464405072
0	20624	430044.15012200372	0.046464405072
0	20669	430987.234459403111	0.046464405072
0	20719	431930.318796802502	0.046464405072
0	20755	432873.403134201893	0.046464405072
0	20807	433816.487471601284	0.046464405072
0	20852	434759.571809000675	0.046464405072
0	20895	435702.640658265042	0.030976270048
0	20940	436645.724995664433	0.046464405072
0	20992	437588.809333063824	0.046464405072
0	21037	438531.893670463215	0.046464405072
0	21080	439474.962519727582	0.030976270048
0	21125	440418.046857126973	0.046464405072
0	21177	441361.131194526364	0.046464405072
0	21220	442304.215531925755	0.046464405072
0	21263	443247.284381190122	0.030976270048
0	21308	444190.368718589513	0.046464405072
0	21351	445133.43756785388	0.030976270048
0	21403	446076.521905253271	0.046464405072
0	21448	447019.606242652662	0.046464405072
0	21493	447962.690580052053	0.046464405072
0	21536	448905.774917451444	0.046464405072
0	21581	449848.859254850835	0.046464405072
0	21626	450791.943592250226	0.046464405072
0	21678	451735.027929649617	0.046464405072
0	21719	452678.096778913984	0.030976270048
0	21762	453621.181116313375	0.046464405072
0	21807	454564.265453712766	0.046464405072
0	21852	455507.349791112157	0.046464405072
0	21897	456450.434128511548	0.046464405072
0	21940	457393.518465910939	0.046464405072
0	21988	458336.587315175306	0.030976270048
0	22033	459279.671652574697	0.046464405072
0	22078	460222.755989974088	0.046464405072
0	22116	461165.824839238455	0.030976270048
0	22159	462108.909176637846	0.046464405072
0	22204	463051.993514037237	0.046464405072
0	22256	463995.077851436628	0.046464405072
0	22301	464938.162188836019	0.046464405072
0	22346	465881.24652623541	0.046464405072
0	22391	466824.330863634801	0.046464405072
0	22436	467767.415201034192	0.046464405072
0	22488	468710.499538433583	0.046464405072
0	22531	469653.583875832974	0.046464405072
0	22576	470596.668213232365	0.046464405072
0	22621	471539.752550631756	0.046464405072
0	22666	472482.836888031147	0.046464405072
0	22718	473425.921225430538	0.046464405072
0	22763	474369.005562829929	0.046464405072
0	22804	475312.074412094296	0.030976270048
0	22849	476255.158749493687	0.046464405072
0	22890	477198.227598758054	0.030976270048
0	22933	478141.311936157445	0.046464405072
0	22985	479084.396273556836	0.046464405072
0	23030	480027.480610956227	0.046464405072
0	23073	480970.564948355618	0.046464405072
0	23118	481913.649285755009	0.046464405072
0	23163	482856.7336231544	0.046464405072
0	23215	483799.817960553791	0.046464405072
0	23260	484742.902297953182	0.046464405072
0	23305	485685.986635352573	0.046464405072
0	23350	486629.070972751964	0.046464405072
0	23402	487572.155310151355	0.046464405072
0	23445	488515.224159415722	0.030976270048
0	23490	489458.308496815113	0.046464405072
0	23535	490401.392834214504	0.046464405072
0	23578	491344.461683478871	0.030976270048
0	23623	492287.546020878262	0.046464405072
0	23671	493230.614870142629	0.030976270048
0	23716	494173.69920754202	0.046464405072
0	23759	495116.783544941411	0.046464405072
0	23806	496059.867882340802	0.046464405072
0	23847	497002.936731605169	0.030976270048
0	23892	497946.02106900456	0.046464405072
0	23944	498889.105406403951	0.046464405072
0	23989	499832.189743803342	0.046464405072
0	24032	500775.274081202733	0.046464405072
0	24077	501718.358418602124	0.046464405072
0	24120	502661.442756001515	0.046464405072
0	24163	503604.511605265882	0.030976270048
0	24208	504547.595942665273	0.046464405072
0	24253	505490.680280064664	0.046464405072
0	24298	506433.764617464055	0.046464405072
0	24350	507376.848954863446	0.046464405072
0	24391	508319.917804127813	0.030976270048
0	24434	509263.002141527204	0.046464405072
0	24479	510206.086478926595	0.046464405072
0	24522	511149.155328190962	0.030976270048
0	24567	512092.239665590353	0.046464405072
0	24612	513035.324002989744	0.046464405072
0	24664	513978.408340389135	0.046464405072
0	24707	514921.492677788526	0.046464405072
0	24752	515864.577015187917	0.046464405072
0	24795	516807.645864452284	0.030976270048
0	24838	517750.730201851675	0.046464405072
0	24888	518693.799051116042	0.030976270048
0	24931	519636.867900380409	0.030976270048
0	24974	520579.936749644776	0.030976270048
0	25019	521523.021087044167	0.046464405072
0	25064	522466.105424443558	0.046464405072
0	25114	523409.174273707925	0.030976270048
0	25157	524352.243122972292	0.030976270048
0	25198	525295.311972236659	0.030976270048
0	25241	526238.380821501026	0.030976270048
0	25293	527181.465158900417	0.046464405072
0	25338	528124.549496299808	0.046464405072
0	25381	529067.618345564175	0.030976270048
0	25426	530010.702682963566	0.046464405072
0	25471	530953.787020362957	0.046464405072
0	25511	531896.871357762348	0.046464405072
0	25556	532839.955695161739	0.046464405072
0	25606	533783.04003256113	0.046464405072
0	25651	534726.124369960521	0.046464405072
0	25696	535669.208707359912	0.046464405072
0	25739	536612.277556624279	0.030976270048
0	25791	537555.36189402367	0.046464405072
0	25834	538498.430743288037	0.030976270048
0	25877	539441.515080687428	0.046464405072
0	25920	540384.599418086819	0.046464405072
0	25970	541327.68375548621	0.046464405072
0	26011	542270.752604750577	0.030976270048
0	26052	543213.821454014944	0.030976270048
0	26097	544156.905791414335	0.046464405072
0	26138	545099.974640678702	0.030976270048
0	26183	546043.058978078093	0.046464405072
0	26226	546986.143315477484	0.046464405072
0	26271	547929.227652876875	0.046464405072
0	26314	548872.296502141242	0.030976270048
0	26355	549815.365351405609	0.030976270048
0	26407	550758.449688805	0.046464405072
0	26450	551701.518538069367	0.030976270048
0	26495	552644.602875468758	0.046464405072
0	26547	553587.687212868149	0.046464405072
0	26592	554530.77155026754	0.046464405072
0	26637	555473.855887666931	0.046464405072
0	26680	556416.940225066322	0.046464405072
0	26723	557360.024562465713	0.046464405072
0	26766	558303.09341173008	0.030976270048
0	26818	559246.177749129471	0.046464405072
0	26861	560189.246598393838	0.030976270048
0	26906	561132.330935793229	0.046464405072
0	26951	562075.41527319262	0.046464405072
0	26996	563018.499610592011	0.046464405072
0	27048	563961.583947991402	0.046464405072
0	27091	564904.652797255769	0.030976270048
0	27136	565847.73713465516	0.046464405072
0	27174	566790.805983919527	0.030976270048
0	27224	567733.890321318918	0.046464405072
0	27269	568676.974658718309	0.046464405072
0	27321	569620.0589961177	0.046464405072
0	27364	570563.143333517091	0.046464405072
0	27407	571506.227670916482	0.046464405072
0	27452	572449.312008315873	0.046464405072
0	27497	573392.396345715264	0.046464405072
0	27549	574335.480683114655	0.046464405072
0	27592	575278.565020514046	0.046464405072
0	27637	576221.649357913437	0.046464405072
0	27682	577164.733695312828	0.046464405072
0	27727	578107.818032712219	0.046464405072
0	27779	579050.90237011161	0.046464405072
0	27822	579993.986707511001	0.046464405072
0	27865	580937.071044910392	0.046464405072
0	27906	581880.139894174759	0.030976270048
0	27951	582823.22423157415	0.046464405072
0	28003	583766.308568973541	0.046464405072
0	28048	584709.392906372932	0.046464405072
0	28091	585652.477243772323	0.046464405072
0	28134	586595.54609303669	0.030976270048
0	28177	587538.614942301057	0.030976270048
0	28227	588481.683791565424	0.030976270048
0	28270	589424.752640829791	0.030976270048
0	28313	590367.836978229182	0.046464405072
0	28358	591310.921315628573	0.046464405072
0	28410	592254.005653027964	0.046464405072
0	28455	593197.089990427355	0.046464405072
0	28500	594140.174327826746	0.046464405072
0	28545	595083.258665226137	0.046464405072
0	28590	596026.343002625528	0.046464405072
0	28631	596969.411851889895	0.030976270048
0	28674	597912.496189289286	0.046464405072
0	28719	598855.580526688677	0.046464405072
0	28771	599798.664864088068	0.046464405072
0	28816	600741.749201487459	0.046464405072
0	28861	601684.83353888685	0.046464405072
0	28901	602627.917876286241	0.046464405072
0	28953	603571.002213685632	0.046464405072
0	28998	604514.086551085023	0.046464405072
0	29043	605457.170888484414	0.046464405072
0	29086	606400.239737748781	0.030976270048
0	29131	607343.324075148172	0.046464405072
0	29183	608286.408412547563	0.046464405072
0	29226	609229.47726181193	0.030976270048
0	29271	610172.561599211321	0.046464405072
0	29314	611115.645936610712	0.046464405072
0	29357	612058.714785875079	0.030976270048
0	29402	613001.79912327447	0.046464405072
0	29445	613944.867972538837	0.030976270048
0	29497	614887.952309938228	0.046464405072
0	29542	615831.036647337619	0.046464405072
0	29585	616774.12098473701	0.046464405072
0	29630	617717.205322136401	0.046464405072
0	29680	618660.274171400768	0.030976270048
0	29723	619603.358508800159	0.046464405072
0	29768	620546.44284619955	0.046464405072
0	29813	621489.527183598941	0.046464405072
0	29858	622432.611520998332	0.046464405072
0	29903	623375.695858397723	0.046464405072
0	29953	624318.780195797114	0.046464405072
0	29994	625261.849045061481	0.030976270048
0	30039	626204.933382460872	0.046464405072
0	30082	627148.002231725239	0.030976270048
0	30127	628091.08656912463	0.046464405072
0	30179	629034.170906524021	0.046464405072
0	30222	629977.239755788388	0.030976270048
0	30267	630920.324093187779	0.046464405072
0	30312	631863.40843058717	0.046464405072
0	30353	632806.477279851537	0.030976270048
0	30398	633749.561617250928	0.046464405072
0	30450	634692.645954650319	0.046464405072
0	30493	635635.73029204971	0.046464405072
0	30538	636578.814629449101	0.046464405072
0	30578	637521.898966848492	0.046464405072
0	30621	638464.967816112859	0.030976270048
0	30662	639408.036665377226	0.030976270048
0	30705	640351.105514641593	0.030976270048
0	30757	641294.189852040984	0.046464405072
0	30800	642237.258701305351	0.030976270048
0	30845	643180.343038704742	0.046464405072
0	30888	644123.411887969109	0.030976270048
0	30938	645066.4962253685	0.046464405072
0	30981	646009.580562767891	0.046464405072
0	31026	646952.664900167282	0.046464405072
0	31071	647895.749237566673	0.046464405072
0	31121	648838.833574966064	0.046464405072
0	31157	649781.902424230431	0.030976270048
0	31207	650724.986761629822	0.046464405072
0	31252	651668.071099029213	0.046464405072
0	31295	652611.155436428604	0.046464405072
0	31347	653554.239773827995	0.046464405072
0	31392	654497.324111227386	0.046464405072
0	31435	655440.408448626777	0.046464405072
0	31480	656383.492786026168	0.046464405072
0	31525	657326.577123425559	0.046464405072
0	31575	658269.645972689926	0.030976270048
0	31620	659212.730310089317	0.046464405072
0	31663	660155.814647488708	0.046464405072
0	31704	661098.883496753075	0.030976270048
0	31749	662041.967834152466	0.046464405072
0	31799	662985.036683416833	0.030976270048
0	31844	663928.121020816224	0.046464405072
0	31887	664871.189870080591	0.030976270048
0	31932	665814.274207479982	0.046464405072
0	31982	666757.343056744349	0.030976270048
0	32025	667700.411906008716	0.030976270048
0	32070	668643.496243408107	0.046464405072
0	32113	669586.565092672474	0.030976270048
0	32165	670529.649430071865	0.046464405072
0	32210	671472.733767471256	0.046464405072
0	32255	672415.818104870647	0.046464405072
0	32300	673358.886954135014	0.030976270048
0	32343	674301.971291534405	0.046464405072
0	32388	675245.055628933796	0.046464405072
0	32429	676188.124478198163	0.030976270048
0	32470	677131.19332746253	0.030976270048
0	32522	678074.277664861921	0.046464405072
0	32567	679017.362002261312	0.046464405072
0	32610	679960.430851525679	0.030976270048
0	32660	680903.51518892507	0.046464405072
0	32701	681846.584038189437	0.030976270048
0	32746	682789.668375588828	0.046464405072
0	32791	683732.752712988219	0.046464405072
0	32836	684675.83705038761	0.046464405072
0	32881	685618.921387787001	0.046464405072
0	32933	686562.005725186392	0.046464405072
0	32976	687505.090062585783	0.046464405072
0	33019	688448.174399985174	0.046464405072
0	33069	689391.258737384565	0.046464405072
0	33110	690334.327586648932	0.030976270048
0	33153	691277.411924048323	0.046464405072
0	33196	692220.496261447714	0.046464405072
0	33241	693163.580598847105	0.046464405072
0	33286	694106.664936246496	0.046464405072
0	33338	695049.749273645887	0.046464405072
0	33383	695992.833611045278	0.046464405072
0	33426	696935.917948444669	0.046464405072
0	33471	697879.00228584406	0.046464405072
0	33514	698822.086623243451	0.046464405072
0	33559	699765.170960642842	0.046464405072
0	33602	700708.255298042233	0.046464405072
0	33652	701651.3241473066	0.030976270048
0	33695	702594.392996570967	0.030976270048
0	33740	703537.477333970358	0.046464405072
0	33783	704480.546183234725	0.030976270048
0	33826	705423.630520634116	0.046464405072
0	33869	706366.714858033507	0.046464405072
0	33919	707309.783707297874	0.030976270048
0	33962	708252.868044697265	0.046464405072
0	34000	709195.936893961632	0.030976270048
0	34043	710139.021231361023	0.046464405072
0	34086	711082.09008062539	0.030976270048
0	34138	712025.174418024781	0.046464405072
0	34181	712968.243267289148	0.030976270048
0	34226	713911.327604688539	0.046464405072
0	34269	714854.41194208793	0.046464405072
0	34314	715797.496279487321	0.046464405072
0	34366	716740.580616886712	0.046464405072
0	34411	717683.664954286103	0.046464405072
0	34454	718626.749291685494	0.046464405072
0	34497	719569.833629084885	0.046464405072
0	34542	720512.917966484276	0.046464405072
0	34587	721456.002303883667	0.046464405072
0	34628	722399.071153148034	0.030976270048
0	34678	723342.140002412401	0.030976270048
0	34723	724285.224339811792	0.046464405072
0	34766	725228.308677211183	0.046464405072
0	34818	726171.393014610574	0.046464405072
0	34861	727114.477352009965	0.046464405072
0	34904	728057.561689409356	0.046464405072
0	34949	729000.646026808747	0.046464405072
0	34992	729943.714876073114	0.030976270048
0	35042	730886.799213472505	0.046464405072
0	35085	731829.868062736872	0.030976270048
0	35128	732772.952400136263	0.046464405072
0	35173	733716.036737535654	0.046464405072
0	35221	734659.105586800021	0.030976270048
0	35266	735602.189924199412	0.046464405072
0	35311	736545.274261598803	0.046464405072
0	35356	737488.358598998194	0.046464405072
0	35401	738431.442936397585	0.046464405072
0	35453	739374.527273796976	0.046464405072
0	35498	740317.611611196367	0.046464405072
0	35543	741260.695948595758	0.046464405072
0	35588	742203.780285995149	0.046464405072
0	35633	743146.86462339454	0.046464405072
0	35673	744089.948960793931	0.046464405072
0	35725	745033.033298193322	0.046464405072
0	35768	745976.117635592713	0.046464405072
0	35811	746919.18648485708	0.030976270048
0	35856	747862.270822256471	0.046464405072
0	35899	748805.355159655862	0.046464405072
0	35951	749748.439497055253	0.046464405072
0	35996	750691.523834454644	0.046464405072
0	36041	751634.608171854035	0.046464405072
0	36086	752577.692509253426	0.046464405072
0	36129	753520.776846652817	0.046464405072
0	36174	754463.861184052208	0.046464405072
0	36222	755406.930033316575	0.030976270048
0	36267	756350.014370715966	0.046464405072
0	36310	757293.098708115357	0.046464405072
0	36355	758236.183045514748	0.046464405072
0	36405	759179.251894779115	0.030976270048
0	36450	760122.336232178506	0.046464405072
0	36491	761065.405081442873	0.030976270048
0	36534	762008.47393070724	0.030976270048
0	36577	762951.542779971607	0.030976270048
0	36629	763894.627117370998	0.046464405072
0	36672	764837.695966635365	0.030976270048
0	36713	765780.764815899732	0.030976270048
0	36765	766723.849153299123	0.046464405072
0	36810	767666.933490698514	0.046464405072
0	36853	768610.017828097905	0.046464405072
0	36896	769553.102165497296	0.046464405072
0	36941	770496.186502896687	0.046464405072
0	36982	771439.255352161054	0.030976270048
0	37027	772382.339689560445	0.046464405072
0	37077	773325.424026959836	0.046464405072
0	37120	774268.508364359227	0.046464405072
0	37165	775211.592701758618	0.046464405072
0	37217	776154.677039158009	0.046464405072
0	37262	777097.7613765574	0.046464405072
0	37305	778040.845713956791	0.046464405072
0	37350	778983.930051356182	0.046464405072
0	37397	779927.014388755573	0.046464405072
0	37440	780870.08323801994	0.030976270048
0	37481	781813.152087284307	0.030976270048
0	37524	782756.236424683698	0.046464405072
0	37569	783699.320762083089	0.046464405072
0	37621	784642.40509948248	0.046464405072
0	37664	785585.489436881871	0.046464405072
0	37707	786528.558286146238	0.030976270048
0	37752	787471.642623545629	0.046464405072
0	37795	788414.711472809996	0.030976270048
0	37840	789357.795810209387	0.046464405072
0	37892	790300.880147608778	0.046464405072
0	37937	791243.964485008169	0.046464405072
0	37980	792187.04882240756	0.046464405072
0	38025	793130.133159806951	0.046464405072
0	38068	794073.202009071318	0.030976270048
0	38120	795016.286346470709	0.046464405072
0	38163	795959.355195735076	0.030976270048
0	38208	796902.439533134467	0.046464405072
0	38251	797845.523870533858	0.046464405072
0	38301	798788.592719798225	0.030976270048
0	38346	799731.677057197616	0.046464405072
0	38391	800674.761394597007	0.046464405072
0	38436	801617.845731996398	0.046464405072
0	38488	802560.930069395789	0.046464405072
0	38531	803504.01440679518	0.046464405072
0	38574	804447.083256059547	0.030976270048
0	38619	805390.167593458938	0.046464405072
0	38664	806333.251930858329	0.046464405072
0	38707	807276.320780122696	0.030976270048
0	38752	808219.405117522087	0.046464405072
0	38797	809162.489454921478	0.046464405072
0	38845	810105.558304185845	0.030976270048
0	38888	811048.627153450212	0.030976270048
0	38933	811991.711490849603	0.046464405072
0	38976	812934.795828248994	0.046464405072
0	39028	813877.880165648385	0.046464405072
0	39068	814820.964503047776	0.046464405072
0	39111	815764.033352312143	0.030976270048
0	39154	816707.117689711534	0.046464405072
0	39197	817650.186538975901	0.030976270048
0	39242	818593.270876375292	0.046464405072
0	39285	819536.339725639659	0.030976270048
0	39330	820479.42406303905	0.046464405072
0	39378	821422.492912303417	0.030976270048
0	39423	822365.577249702808	0.046464405072
0	39468	823308.661587102199	0.046464405072
0	39511	824251.730436366566	0.030976270048
0	39561	825194.814773765957	0.046464405072
0	39606	826137.899111165348	0.046464405072
0	39649	827080.967960429715	0.030976270048
0	39694	828024.052297829106	0.046464405072
0	39737	828967.121147093473	0.030976270048
0	39780	829910.205484492864	0.046464405072
0	39830	830853.274333757231	0.030976270048
0	39873	831796.358671156622	0.046464405072
0	39916	832739.427520420989	0.030976270048
0	39957	833682.496369685356	0.030976270048
0	40009	834625.580707084747	0.046464405072
0	40054	835568.665044484138	0.046464405072
0	40099	836511.749381883529	0.046464405072
0	40151	837454.83371928292	0.046464405072
0	40194	838397.902568547287	0.030976270048
0	40239	839340.986905946678	0.046464405072
0	40284	840284.071243346069	0.046464405072
0	40329	841227.15558074546	0.046464405072
0	40381	842170.239918144851	0.046464405072
0	40424	843113.308767409218	0.030976270048
0	40469	844056.393104808609	0.046464405072
0	40514	844999.477442208	0.046464405072
0	40557	845942.561779607391	0.046464405072
0	40602	846885.646117006782	0.046464405072
0	40647	847828.730454406173	0.046464405072
0	40699	848771.814791805564	0.046464405072
0	40744	849714.899129204955	0.046464405072
0	40784	850657.983466604346	0.046464405072
0	40827	851601.052315868713	0.030976270048
0	40872	852544.136653268104	0.046464405072
0	40922	853487.205502532471	0.030976270048
0	40967	854430.289839931862	0.046464405072
0	41010	855373.358689196229	0.030976270048
0	41055	856316.44302659562	0.046464405072
0	41096	857259.511875859987	0.030976270048
0	41141	858202.596213259378	0.046464405072
0	41193	859145.680550658769	0.046464405072
0	41229	860088.749399923136	0.030976270048
0	41279	861031.833737322527	0.046464405072
0	41324	861974.918074721918	0.046464405072
0	41369	862918.002412121309	0.046464405072
0	41414	863861.0867495207	0.046464405072
0	41459	864804.171086920091	0.046464405072
0	41504	865747.255424319482	0.046464405072
0	41547	866690.324273583849	0.030976270048
0	41599	867633.40861098324	0.046464405072
0	41642	868576.477460247607	0.030976270048
0	41687	869519.561797646998	0.046464405072
0	41730	870462.630646911365	0.030976270048
0	41782	871405.714984310756	0.046464405072
0	41827	872348.799321710147	0.046464405072
0	41868	873291.868170974514	0.030976270048
0	41913	874234.952508373905	0.046464405072
0	41958	875178.036845773296	0.046464405072
0	41999	876121.105695037663	0.030976270048
0	42049	877064.190032437054	0.046464405072
0	42092	878007.258881701421	0.030976270048
0	42137	878950.343219100812	0.046464405072
0	42182	879893.427556500203	0.046464405072
0	42232	880836.49640576457	0.030976270048
0	42277	881779.580743163961	0.046464405072
0	42320	882722.649592428328	0.030976270048
0	42363	883665.718441692695	0.030976270048
0	42408	884608.802779092086	0.046464405072
0	42446	885551.871628356453	0.030976270048
0	42498	886494.955965755844	0.046464405072
0	42541	887438.040303155235	0.046464405072
0	42584	888381.109152419602	0.030976270048
0	42629	889324.193489818993	0.046464405072
0	42679	890267.26233908336	0.030976270048
0	42722	891210.346676482751	0.046464405072
0	42767	892153.431013882142	0.046464405072
0	42812	893096.515351281533	0.046464405072
0	42857	894039.599688680924	0.046464405072
0	42907	894982.668537945291	0.030976270048
0	42952	895925.752875344682	0.046464405072
0	42997	896868.837212744073	0.046464405072
0	43042	897811.921550143464	0.046464405072
0	43087	898755.005887542855	0.046464405072
0	43139	899698.090224942246	0.046464405072
0	43182	900641.159074206613	0.030976270048
0	43225	901584.22792347098	0.030976270048
0	43270	902527.312260870371	0.046464405072
0	43322	903470.396598269762	0.046464405072
0	43365	904413.465447534129	0.030976270048
0	43410	905356.54978493352	0.046464405072
0	43455	906299.634122332911	0.046464405072
0	43500	907242.718459732302	0.046464405072
0	43545	908185.802797131693	0.046464405072
0	43595	909128.87164639606	0.030976270048
0	43640	910071.955983795451	0.046464405072
0	43685	911015.040321194842	0.046464405072
0	43735	911958.109170459209	0.030976270048
0	43780	912901.1935078586	0.046464405072
0	43825	913844.277845257991	0.046464405072
0	43870	914787.362182657382	0.046464405072
0	43913	915730.446520056773	0.046464405072
0	43956	916673.530857456164	0.046464405072
0	43999	917616.599706720531	0.030976270048
0	44051	918559.684044119922	0.046464405072
0	44092	919502.752893384289	0.030976270048
0	44137	920445.83723078368	0.046464405072
0	44177	921388.921568183071	0.046464405072
0	44222	922332.005905582462	0.046464405072
0	44274	923275.090242981853	0.046464405072
0	44319	924218.174580381244	0.046464405072
0	44364	925161.258917780635	0.046464405072
0	44407	926104.327767045002	0.030976270048
0	44452	927047.412104444393	0.046464405072
0	44504	927990.496441843784	0.046464405072
0	44547	928933.565291108151	0.030976270048
0	44590	929876.649628507542	0.046464405072
0	44635	930819.733965906933	0.046464405072
0	44687	931762.818303306324	0.046464405072
0	44732	932705.902640705715	0.046464405072
0	44775	933648.986978105106	0.046464405072
0	44820	934592.071315504497	0.046464405072
0	44865	935535.155652903888	0.046464405072
0	44915	936478.224502168255	0.030976270048
0	44960	937421.308839567646	0.046464405072
0	45005	938364.393176967037	0.046464405072
0	45057	939307.477514366428	0.046464405072
0	45100	940250.546363630795	0.030976270048
0	45141	941193.615212895162	0.030976270048
0	45186	942136.699550294553	0.046464405072
0	45229	943079.76839955892	0.030976270048
0	45279	944022.852736958311	0.046464405072
0	45320	944965.921586222678	0.030976270048
0	45363	945908.990435487045	0.030976270048
0	45406	946852.059284751412	0.030976270048
0	45449	947795.143622150803	0.046464405072
0	45499	948738.227959550194	0.046464405072
0	45544	949681.312296949585	0.046464405072
0	45585	950624.381146213952	0.030976270048
0	45628	951567.465483613343	0.046464405072
0	45671	952510.549821012734	0.046464405072
0	45721	953453.618670277101	0.030976270048
0	45766	954396.703007676492	0.046464405072
0	45811	955339.787345075883	0.046464405072
0	45858	956282.871682475274	0.046464405072
0	45903	957225.956019874665	0.046464405072
0	45946	958169.024869139032	0.030976270048
0	45998	959112.109206538423	0.046464405072
0	46043	960055.193543937814	0.046464405072
0	46084	960998.262393202181	0.030976270048
0	46129	961941.346730601572	0.046464405072
0	46172	962884.415579865939	0.030976270048
0	46224	963827.49991726533	0.046464405072
0	46269	964770.584254664721	0.046464405072
0	46314	965713.668592064112	0.046464405072
0	46359	966656.752929463503	0.046464405072
0	46404	967599.837266862894	0.046464405072
0	46449	968542.921604262285	0.046464405072
0	46494	969486.005941661676	0.046464405072
0	46544	970429.074790926043	0.030976270048
0	46589	971372.159128325434	0.046464405072
0	46634	972315.243465724825	0.046464405072
0	46679	973258.327803124216	0.046464405072
0	46724	974201.412140523607	0.046464405072
0	46769	975144.496477922998	0.046464405072
0	46819	976087.565327187365	0.030976270048
0	46862	977030.649664586756	0.046464405072
0	46905	977973.734001986147	0.046464405072
0	46948	978916.802851250514	0.030976270048
0	46993	979859.887188649905	0.046464405072
0	47043	980802.956037914272	0.030976270048
1	49	968.899613223088	0.046464405072
1	90	1937.783738311152	0.030976270048
1	133	2906.68335153424	0.046464405072
1	185	3875.582964757328	0.046464405072
1	228	4844.482577980416	0.046464405072
1	273	5813.382191203504	0.046464405072
1	325	6782.281804426592	0.046464405072
1	370	7751.18141764968	0.046464405072
1	413	8720.081030872768	0.046464405072
1	458	9688.980644095856	0.046464405072
1	501	10657.880257318944	0.046464405072
1	551	11626.764382407008	0.030976270048
1	596	12595.663995630096	0.046464405072
1	637	13564.54812071816	0.030976270048
1	682	14533.447733941248	0.046464405072
1	734	15502.347347164336	0.046464405072
1	777	16471.246960387424	0.046464405072
1	818	17440.131085475488	0.030976270048
1	870	18409.030698698576	0.046464405072
1	913	19377.930311921664	0.046464405072
1	958	20346.829925144752	0.046464405072
1	1008	21315.72953836784	0.046464405072
1	1053	22284.629151590928	0.046464405072
1	1098	23253.528764814016	0.046464405072
1	1150	24222.428378037104	0.046464405072
1	1195	25191.327991260192	0.046464405072
1	1240	26160.22760448328	0.046464405072
1	1285	27129.127217706368	0.046464405072
1	1337	28098.026830929456	0.046464405072
1	1382	29066.926444152544	0.046464405072
1	1427	30035.826057375632	0.046464405072
1	1472	31004.72567059872	0.046464405072
1	1524	31973.625283821808	0.046464405072
1	1565	32942.509408909872	0.030976270048
1	1610	33911.40902213296	0.046464405072
1	1662	34880.308635356048	0.046464405072
1	1708	35849.177272309088	0.015488135024
1	1760	36818.061397397152	0.030976270048
1	1805	37786.945522485216	0.030976270048
1	1850	38755.82964757328	0.030976270048
1	1902	39724.713772661344	0.030976270048
1	1947	40693.597897749408	0.030976270048
1	1996	41662.466534702448	0.015488135024
1	2039	42631.335171655488	0.015488135024
1	2084	43600.219296743552	0.030976270048
1	2127	44569.087933696592	0.015488135024
1	2179	45537.972058784656	0.030976270048
1	2222	46506.840695737696	0.015488135024
1	2265	47475.709332690736	0.015488135024
1	2317	48444.5934577788	0.030976270048
1	2360	49413.477582866864	0.030976270048
1	2410	50382.346219819904	0.015488135024
1	2455	51351.230344907968	0.030976270048
1	2500	52320.114469996032	0.030976270048
1	2543	53288.983106949072	0.015488135024
1	2595	54257.867232037136	0.030976270048
1	2640	55226.7513571252	0.030976270048
1	2685	56195.635482213264	0.030976270048
1	2737	57164.519607301328	0.030976270048
1	2780	58133.388244254368	0.015488135024
1	2823	59102.256881207408	0.015488135024
1	2873	60071.141006295472	0.030976270048
1	2918	61040.025131383536	0.030976270048
1	2963	62008.9092564716	0.030976270048
1	3013	62977.77789342464	0.015488135024
1	3058	63946.662018512704	0.030976270048
1	3108	64915.546143600768	0.030976270048
1	3153	65884.430268688832	0.030976270048
1	3196	66853.314393776896	0.030976270048
1	3248	67822.19851886496	0.030976270048
1	3293	68791.082643953024	0.030976270048
1	3338	69759.966769041088	0.030976270048
1	3388	70728.835405994128	0.015488135024
1	3442	71697.719531082192	0.030976270048
1	3487	72666.603656170256	0.030976270048
1	3539	73635.48778125832	0.030976270048
1	3582	74604.371906346384	0.030976270048
1	3634	75573.256031434448	0.030976270048
1	3680	76542.140156522512	0.030976270048
1	3725	77511.024281610576	0.030976270048
1	3775	78479.892918563616	0.015488135024
1	3818	79448.761555516656	0.015488135024
1	3868	80417.630192469696	0.015488135024
1	3913	81386.51431755776	0.030976270048
1	3958	82355.398442645824	0.030976270048
1	4006	83324.267079598864	0.015488135024
1	4051	84293.151204686928	0.030976270048
1	4094	85262.035329774992	0.030976270048
1	4137	86230.903966728032	0.015488135024
1	4189	87199.788091816096	0.030976270048
1	4234	88168.67221690416	0.030976270048
1	4279	89137.556341992224	0.030976270048
1	4324	90106.440467080288	0.030976270048
1	4376	91075.324592168352	0.030976270048
1	4421	92044.208717256416	0.030976270048
1	4466	93013.09284234448	0.030976270048
1	4518	93981.976967432544	0.030976270048
1	4561	94950.845604385584	0.015488135024
1	4606	95919.729729473648	0.030976270048
1	4649	96888.598366426688	0.015488135024
1	4692	97857.467003379728	0.015488135024
1	4742	98826.335640332768	0.015488135024
1	4787	99795.219765420832	0.030976270048
1	4832	100764.103890508896	0.030976270048
1	4882	101732.972527461936	0.015488135024
1	4925	102701.841164414976	0.015488135024
1	4970	103670.72528950304	0.030976270048
1	5022	104639.609414591104	0.030976270048
1	5065	105608.478051544144	0.015488135024
1	5128	106577.362176632208	0.030976270048
1	5173	107546.246301720272	0.030976270048
1	5216	108515.130426808336	0.030976270048
1	5257	109483.999063761376	0.015488135024
1	5305	110452.867700714416	0.015488135024
1	5350	111421.75182580248	0.030976270048
1	5403	112390.635950890544	0.030976270048
1	5444	113359.504587843584	0.015488135024
1	5489	114328.388712931648	0.030976270048
1	5541	115297.272838019712	0.030976270048
1	5584	116266.156963107776	0.030976270048
1	5627	117235.025600060816	0.015488135024
1	5670	118203.90972514888	0.030976270048
1	5720	119172.793850236944	0.030976270048
1	5763	120141.677975325008	0.030976270048
1	5808	121110.562100413072	0.030976270048
1	5851	122079.430737366112	0.015488135024
1	5903	123048.314862454176	0.030976270048
1	5946	124017.19898754224	0.030976270048
1	5991	124986.083112630304	0.030976270048
1	6041	125954.951749583344	0.015488135024
1	6086	126923.835874671408	0.030976270048
1	6129	127892.704511624448	0.015488135024
1	6179	128861.588636712512	0.030976270048
1	6224	129830.472761800576	0.030976270048
1	6267	130799.341398753616	0.015488135024
1	6317	131768.22552384168	0.030976270048
1	6362	132737.109648929744	0.030976270048
1	6407	133705.993774017808	0.030976270048
1	6457	134674.862410970848	0.015488135024
1	6500	135643.746536058912	0.030976270048
1	6548	136612.615173011952	0.015488135024
1	6593	137581.499298100016	0.030976270048
1	6638	138550.38342318808	0.030976270048
1	6688	139519.25206014112	0.015488135024
1	6733	140488.136185229184	0.030976270048
1	6778	141457.020310317248	0.030976270048
1	6832	142425.904435405312	0.030976270048
1	6882	143394.773072358352	0.015488135024
1	6927	144363.657197446416	0.030976270048
1	6972	145332.54132253448	0.030976270048
1	7024	146301.425447622544	0.030976270048
1	7070	147270.309572710608	0.030976270048
1	7115	148239.193697798672	0.030976270048
1	7160	149208.077822886736	0.030976270048
1	7210	150176.946459839776	0.015488135024
1	7255	151145.83058492784	0.030976270048
1	7305	152114.714710015904	0.030976270048
1	7348	153083.583346968944	0.015488135024
1	7391	154052.467472057008	0.030976270048
1	7436	155021.351597145072	0.030976270048
1	7479	155990.220234098112	0.015488135024
1	7529	156959.088871051152	0.015488135024
1	7574	157927.972996139216	0.030976270048
1	7617	158896.841633092256	0.015488135024
1	7660	159865.710270045296	0.015488135024
1	7712	160834.59439513336	0.030976270048
1	7755	161803.4630320864	0.015488135024
1	7800	162772.347157174464	0.030976270048
1	7850	163741.231282262528	0.030976270048
1	7893	164710.115407350592	0.030976270048
1	7938	165678.999532438656	0.030976270048
1	7990	166647.88365752672	0.030976270048
1	8031	167616.75229447976	0.015488135024
1	8076	168585.636419567824	0.030976270048
1	8119	169554.505056520864	0.015488135024
1	8171	170523.389181608928	0.030976270048
1	8216	171492.273306696992	0.030976270048
1	8259	172461.157431785056	0.030976270048
1	8304	173430.04155687312	0.030976270048
1	8354	174398.925681961184	0.030976270048
1	8395	175367.794318914224	0.015488135024
1	8445	176336.662955867264	0.015488135024
1	8497	177305.531592820304	0.015488135024
1	8540	178274.415717908368	0.030976270048
1	8585	179243.299842996432	0.030976270048
1	8635	180212.168479949472	0.015488135024
1	8680	181181.052605037536	0.030976270048
1	8723	182149.9367301256	0.030976270048
1	8774	183118.820855213664	0.030976270048
1	8819	184087.704980301728	0.030976270048
1	8864	185056.589105389792	0.030976270048
1	8912	186025.457742342832	0.015488135024
1	8957	186994.341867430896	0.030976270048
1	9000	187963.210504383936	0.015488135024
1	9045	188932.094629472	0.030976270048
1	9088	189900.978754560064	0.030976270048
1	9131	190869.847391513104	0.015488135024
1	9181	191838.731516601168	0.030976270048
1	9226	192807.615641689232	0.030976270048
1	9278	193776.499766777296	0.030976270048
1	9323	194745.38389186536	0.030976270048
1	9368	195714.268016953424	0.030976270048
1	9413	196683.152142041488	0.030976270048
1	9458	197652.036267129552	0.030976270048
1	9508	198620.920392217616	0.030976270048
1	9553	199589.80451730568	0.030976270048
1	9596	200558.688642393744	0.030976270048
1	9637	201527.557279346784	0.015488135024
1	9682	202496.441404434848	0.030976270048
1	9734	203465.325529522912	0.030976270048
1	9779	204434.209654610976	0.030976270048
1	9824	205403.09377969904	0.030976270048
1	9869	206371.977904787104	0.030976270048
1	9921	207340.862029875168	0.030976270048
1	9966	208309.746154963232	0.030976270048
1	10011	209278.630280051296	0.030976270048
1	10063	210247.51440513936	0.030976270048
1	10108	211216.398530227424	0.030976270048
1	10149	212185.267167180464	0.015488135024
1	10203	213154.151292268528	0.030976270048
1	10246	214123.035417356592	0.030976270048
1	10296	215091.904054309632	0.015488135024
1	10341	216060.788179397696	0.030976270048
1	10386	217029.67230448576	0.030976270048
1	10438	217998.556429573824	0.030976270048
1	10484	218967.440554661888	0.030976270048
1	10525	219936.309191614928	0.015488135024
1	10570	220905.193316702992	0.030976270048
1	10622	221874.077441791056	0.030976270048
1	10667	222842.96156687912	0.030976270048
1	10712	223811.845691967184	0.030976270048
1	10764	224780.729817055248	0.030976270048
1	10809	225749.613942143312	0.030976270048
1	10854	226718.498067231376	0.030976270048
1	10906	227687.38219231944	0.030976270048
1	10949	228656.25082927248	0.015488135024
1	10992	229625.134954360544	0.030976270048
1	11040	230594.003591313584	0.015488135024
1	11085	231562.887716401648	0.030976270048
1	11128	232531.756353354688	0.015488135024
1	11180	233500.640478442752	0.030976270048
1	11223	234469.509115395792	0.015488135024
1	11268	235438.393240483856	0.030976270048
1	11313	236407.27736557192	0.030976270048
1	11365	237376.161490659984	0.030976270048
1	11408	238345.045615748048	0.030976270048
1	11451	239313.929740836112	0.030976270048
1	11503	240282.813865924176	0.030976270048
1	11548	241251.69799101224	0.030976270048
1	11591	242220.56662796528	0.015488135024
1	11639	243189.43526491832	0.015488135024
1	11682	244158.30390187136	0.015488135024
1	11727	245127.188026959424	0.030976270048
1	11779	246096.072152047488	0.030976270048
1	11824	247064.956277135552	0.030976270048
1	11878	248033.840402223616	0.030976270048
1	11928	249002.72452731168	0.030976270048
1	11973	249971.608652399744	0.030976270048
1	12025	250940.492777487808	0.030976270048
1	12070	251909.376902575872	0.030976270048
1	12113	252878.261027663936	0.030976270048
1	12159	253847.145152752	0.030976270048
1	12202	254816.029277840064	0.030976270048
1	12247	255784.913402928128	0.030976270048
1	12299	256753.797528016192	0.030976270048
1	12344	257722.681653104256	0.030976270048
1	12387	258691.56577819232	0.030976270048
1	12432	259660.449903280384	0.030976270048
1	12482	260629.318540233424	0.015488135024
1	12525	261598.202665321488	0.030976270048
1	12568	262567.071302274528	0.015488135024
1	12613	263535.955427362592	0.030976270048
1	12665	264504.839552450656	0.030976270048
1	12710	265473.72367753872	0.030976270048
1	12753	266442.59231449176	0.015488135024
1	12805	267411.476439579824	0.030976270048
1	12848	268380.360564667888	0.030976270048
1	12891	269349.244689755952	0.030976270048
1	12943	270318.128814844016	0.030976270048
1	12988	271287.01293993208	0.030976270048
1	13033	272255.897065020144	0.030976270048
1	13083	273224.765701973184	0.015488135024
1	13128	274193.649827061248	0.030976270048
1	13173	275162.533952149312	0.030976270048
1	13218	276131.418077237376	0.030976270048
1	13268	277100.30220232544	0.030976270048
1	13313	278069.186327413504	0.030976270048
1	13363	279038.054964366544	0.015488135024
1	13408	280006.939089454608	0.030976270048
1	13451	280975.807726407648	0.015488135024
1	13501	281944.676363360688	0.015488135024
1	13546	282913.560488448752	0.030976270048
1	13600	283882.429125401792	0.015488135024
1	13645	284851.313250489856	0.030976270048
1	13688	285820.19737557792	0.030976270048
1	13736	286789.06601253096	0.015488135024
1	13779	287757.950137619024	0.030976270048
1	13824	288726.834262707088	0.030976270048
1	13877	289695.718387795152	0.030976270048
1	13922	290664.602512883216	0.030976270048
1	13965	291633.48663797128	0.030976270048
1	14017	292602.370763059344	0.030976270048
1	14060	293571.239400012384	0.015488135024
1	14105	294540.123525100448	0.030976270048
1	14155	295508.992162053488	0.015488135024
1	14200	296477.876287141552	0.030976270048
1	14245	297446.760412229616	0.030976270048
1	14295	298415.64453731768	0.030976270048
1	14340	299384.528662405744	0.030976270048
1	14392	300353.412787493808	0.030976270048
1	14435	301322.281424446848	0.015488135024
1	14480	302291.165549534912	0.030976270048
1	14532	303260.049674622976	0.030976270048
1	14577	304228.93379971104	0.030976270048
1	14627	305197.80243666408	0.015488135024
1	14670	306166.686561752144	0.030976270048
1	14715	307135.570686840208	0.030976270048
1	14767	308104.454811928272	0.030976270048
1	14812	309073.338937016336	0.030976270048
1	14855	310042.2230621044	0.030976270048
1	14900	311011.107187192464	0.030976270048
1	14952	311979.991312280528	0.030976270048
1	14995	312948.875437368592	0.030976270048
1	15038	313917.759562456656	0.030976270048
1	15090	314886.64368754472	0.030976270048
1	15135	315855.527812632784	0.030976270048
1	15180	316824.411937720848	0.030976270048
1	15230	317793.280574673888	0.015488135024
1	15284	318762.149211626928	0.015488135024
1	15334	319731.033336714992	0.030976270048
1	15379	320699.917461803056	0.030976270048
1	15420	321668.786098756096	0.015488135024
1	15472	322637.67022384416	0.030976270048
1	15517	323606.554348932224	0.030976270048
1	15568	324575.422985885264	0.015488135024
1	15613	325544.307110973328	0.030976270048
1	15658	326513.191236061392	0.030976270048
1	15701	327482.075361149456	0.030976270048
1	15749	328450.943998102496	0.015488135024
1	15794	329419.82812319056	0.030976270048
1	15837	330388.712248278624	0.030976270048
1	15887	331357.580885231664	0.015488135024
1	15932	332326.465010319728	0.030976270048
1	15977	333295.349135407792	0.030976270048
1	16029	334264.233260495856	0.030976270048
1	16072	335233.101897448896	0.015488135024
1	16117	336201.98602253696	0.030976270048
1	16162	337170.870147625024	0.030976270048
1	16212	338139.738784578064	0.015488135024
1	16255	339108.607421531104	0.015488135024
1	16307	340077.491546619168	0.030976270048
1	16352	341046.375671707232	0.030976270048
1	16397	342015.259796795296	0.030976270048
1	16447	342984.14392188336	0.030976270048
1	16492	343953.028046971424	0.030976270048
1	16537	344921.912172059488	0.030976270048
1	16589	345890.796297147552	0.030976270048
1	16632	346859.664934100592	0.015488135024
1	16684	347828.549059188656	0.030976270048
1	16725	348797.417696141696	0.015488135024
1	16770	349766.30182122976	0.030976270048
1	16822	350735.185946317824	0.030976270048
1	16867	351704.070071405888	0.030976270048
1	16912	352672.954196493952	0.030976270048
1	16962	353641.838321582016	0.030976270048
1	17016	354610.706958535056	0.015488135024
1	17059	355579.59108362312	0.030976270048
1	17111	356548.475208711184	0.030976270048
1	17154	357517.343845664224	0.015488135024
1	17197	358486.227970752288	0.030976270048
1	17242	359455.112095840352	0.030976270048
1	17293	360423.996220928416	0.030976270048
1	17336	361392.88034601648	0.030976270048
1	17381	362361.764471104544	0.030976270048
1	17433	363330.648596192608	0.030976270048
1	17476	364299.532721280672	0.030976270048
1	17519	365268.416846368736	0.030976270048
1	17569	366237.285483321776	0.015488135024
1	17614	367206.16960840984	0.030976270048
1	17657	368175.053733497904	0.030976270048
1	17700	369143.922370450944	0.015488135024
1	17743	370112.791007403984	0.015488135024
1	17791	371081.659644357024	0.015488135024
1	17836	372050.543769445088	0.030976270048
1	17881	373019.427894533152	0.030976270048
1	17926	373988.312019621216	0.030976270048
1	17967	374957.180656574256	0.015488135024
1	18019	375926.06478166232	0.030976270048
1	18064	376894.948906750384	0.030976270048
1	18109	377863.833031838448	0.030976270048
1	18154	378832.717156926512	0.030976270048
1	18204	379801.585793879552	0.015488135024
1	18249	380770.469918967616	0.030976270048
1	18292	381739.35404405568	0.030976270048
1	18344	382708.238169143744	0.030976270048
1	18387	383677.122294231808	0.030976270048
1	18430	384646.006419319872	0.030976270048
1	18480	385614.890544407936	0.030976270048
1	18525	386583.774669496	0.030976270048
1	18568	387552.658794584064	0.030976270048
1	18613	388521.542919672128	0.030976270048
1	18663	389490.427044760192	0.030976270048
1	18717	390459.311169848256	0.030976270048
1	18762	391428.19529493632	0.030976270048
1	18807	392397.079420024384	0.030976270048
1	18859	393365.963545112448	0.030976270048
1	18900	394334.832182065488	0.015488135024
1	18953	395303.716307153552	0.030976270048
1	18996	396272.600432241616	0.030976270048
1	19041	397241.48455732968	0.030976270048
1	19091	398210.368682417744	0.030976270048
1	19136	399179.252807505808	0.030976270048
1	19188	400148.136932593872	0.030976270048
1	19233	401117.021057681936	0.030976270048
1	19276	402085.90518277	0.030976270048
1	19328	403054.789307858064	0.030976270048
1	19371	404023.657944811104	0.015488135024
1	19414	404992.526581764144	0.015488135024
1	19464	405961.410706852208	0.030976270048
1	19507	406930.279343805248	0.015488135024
1	19552	407899.163468893312	0.030976270048
1	19602	408868.047593981376	0.030976270048
1	19645	409836.916230934416	0.015488135024
1	19697	410805.80035602248	0.030976270048
1	19742	411774.684481110544	0.030976270048
1	19787	412743.568606198608	0.030976270048
1	19828	413712.437243151648	0.015488135024
1	19880	414681.321368239712	0.030976270048
1	19925	415650.205493327776	0.030976270048
1	19970	416619.08961841584	0.030976270048
1	20022	417587.973743503904	0.030976270048
1	20067	418556.857868591968	0.030976270048
1	20112	419525.741993680032	0.030976270048
1	20164	420494.626118768096	0.030976270048
1	20209	421463.51024385616	0.030976270048
1	20252	422432.394368944224	0.030976270048
1	20295	423401.263005897264	0.015488135024
1	20343	424370.131642850304	0.015488135024
1	20399	425339.015767938368	0.030976270048
1	20444	426307.899893026432	0.030976270048
1	20496	427276.784018114496	0.030976270048
1	20539	428245.652655067536	0.015488135024
1	20591	429214.5367801556	0.030976270048
1	20636	430183.420905243664	0.030976270048
1	20680	431152.289542196704	0.015488135024
1	20723	432121.158179149744	0.015488135024
1	20768	433090.042304237808	0.030976270048
1	20820	434058.926429325872	0.030976270048
1	20865	435027.810554413936	0.030976270048
1	20915	435996.694679502	0.030976270048
1	20960	436965.578804590064	0.030976270048
1	21005	437934.462929678128	0.030976270048
1	21057	438903.347054766192	0.030976270048
1	21100	439872.231179854256	0.030976270048
1	21145	440841.11530494232	0.030976270048
1	21188	441809.98394189536	0.015488135024
1	21240	442778.868066983424	0.030976270048
1	21283	443747.752192071488	0.030976270048
1	21335	444716.636317159552	0.030976270048
1	21378	445685.520442247616	0.030976270048
1	21423	446654.40456733568	0.030976270048
1	21475	447623.288692423744	0.030976270048
1	21518	448592.157329376784	0.015488135024
1	21563	449561.041454464848	0.030976270048
1	21608	450529.925579552912	0.030976270048
1	21660	451498.809704640976	0.030976270048
1	21703	452467.678341594016	0.015488135024
1	21744	453436.546978547056	0.015488135024
1	21789	454405.43110363512	0.030976270048
1	21841	455374.315228723184	0.030976270048
1	21886	456343.199353811248	0.030976270048
1	21929	457312.067990764288	0.015488135024
1	21972	458280.936627717328	0.015488135024
1	22022	459249.820752805392	0.030976270048
1	22067	460218.704877893456	0.030976270048
1	22119	461187.573514846496	0.015488135024
1	22164	462156.45763993456	0.030976270048
1	22216	463125.341765022624	0.030976270048
1	22261	464094.225890110688	0.030976270048
1	22306	465063.110015198752	0.030976270048
1	22359	466031.994140286816	0.030976270048
1	22404	467000.87826537488	0.030976270048
1	22449	467969.762390462944	0.030976270048
1	22499	468938.631027415984	0.015488135024
1	22544	469907.515152504048	0.030976270048
1	22596	470876.399277592112	0.030976270048
1	22641	471845.283402680176	0.030976270048
1	22686	472814.16752776824	0.030976270048
1	22731	473783.051652856304	0.030976270048
1	22774	474751.920289809344	0.015488135024
1	22824	475720.804414897408	0.030976270048
1	22867	476689.673051850448	0.015488135024
1	22908	477658.541688803488	0.015488135024
1	22960	478627.425813891552	0.030976270048
1	23005	479596.309938979616	0.030976270048
1	23048	480565.178575932656	0.015488135024
1	23093	481534.06270102072	0.030976270048
1	23145	482502.946826108784	0.030976270048
1	23190	483471.830951196848	0.030976270048
1	23235	484440.715076284912	0.030976270048
1	23287	485409.599201372976	0.030976270048
1	23332	486378.48332646104	0.030976270048
1	23384	487347.367451549104	0.030976270048
1	23429	488316.251576637168	0.030976270048
1	23472	489285.135701725232	0.030976270048
1	23517	490254.019826813296	0.030976270048
1	23569	491222.90395190136	0.030976270048
1	23612	492191.788076989424	0.030976270048
1	23655	493160.656713942464	0.015488135024
1	23705	494129.540839030528	0.030976270048
1	23748	495098.409475983568	0.015488135024
1	23809	496067.278112936608	0.015488135024
1	23852	497036.162238024672	0.030976270048
1	23904	498005.046363112736	0.030976270048
1	23949	498973.9304882008	0.030976270048
1	23992	499942.79912515384	0.015488135024
1	24037	500911.683250241904	0.030976270048
1	24088	501880.551887194944	0.015488135024
1	24133	502849.436012283008	0.030976270048
1	24176	503818.320137371072	0.030976270048
1	24221	504787.204262459136	0.030976270048
1	24266	505756.0883875472	0.030976270048
1	24318	506724.972512635264	0.030976270048
1	24361	507693.841149588304	0.015488135024
1	24402	508662.709786541344	0.015488135024
1	24454	509631.593911629408	0.030976270048
1	24499	510600.478036717472	0.030976270048
1	24542	511569.362161805536	0.030976270048
1	24587	512538.2462868936	0.030976270048
1	24639	513507.130411981664	0.030976270048
1	24682	514475.999048934704	0.015488135024
1	24727	515444.883174022768	0.030976270048
1	24772	516413.767299110832	0.030976270048
1	24820	517382.635936063872	0.015488135024
1	24865	518351.520061151936	0.030976270048
1	24908	519320.40418624	0.030976270048
1	24958	520289.288311328064	0.030976270048
1	25001	521258.172436416128	0.030976270048
1	25046	522227.056561504192	0.030976270048
1	25098	523195.940686592256	0.030976270048
1	25141	524164.82481168032	0.030976270048
1	25182	525133.69344863336	0.015488135024
1	25232	526102.577573721424	0.030976270048
1	25275	527071.461698809488	0.030976270048
1	25320	528040.345823897552	0.030976270048
1	25365	529009.229948985616	0.030976270048
1	25415	529978.11407407368	0.030976270048
1	25460	530946.998199161744	0.030976270048
1	25516	531915.882324249808	0.030976270048
1	25566	532884.750961202848	0.015488135024
1	25611	533853.635086290912	0.030976270048
1	25656	534822.519211378976	0.030976270048
1	25708	535791.40333646704	0.030976270048
1	25751	536760.287461555104	0.030976270048
1	25797	537729.171586643168	0.030976270048
1	25845	538698.040223596208	0.015488135024
1	25888	539666.908860549248	0.015488135024
1	25931	540635.777497502288	0.015488135024
1	25981	541604.646134455328	0.015488135024
1	26022	542573.514771408368	0.015488135024
1	26065	543542.398896496432	0.030976270048
1	26108	544511.267533449472	0.015488135024
1	26158	545480.151658537536	0.030976270048
1	26201	546449.020295490576	0.015488135024
1	26246	547417.90442057864	0.030976270048
1	26291	548386.788545666704	0.030976270048
1	26339	549355.657182619744	0.015488135024
1	26382	550324.541307707808	0.030976270048
1	26427	551293.425432795872	0.030976270048
1	26477	552262.309557883936	0.030976270048
1	26522	553231.193682972	0.030976270048
1	26567	554200.077808060064	0.030976270048
1	26619	555168.961933148128	0.030976270048
1	26662	556137.830570101168	0.015488135024
1	26705	557106.699207054208	0.015488135024
1	26757	558075.583332142272	0.030976270048
1	26800	559044.467457230336	0.030976270048
1	26845	560013.3515823184	0.030976270048
1	26895	560982.235707406464	0.030976270048
1	26940	561951.119832494528	0.030976270048
1	26985	562920.003957582592	0.030976270048
1	27030	563888.888082670656	0.030976270048
1	27082	564857.77220775872	0.030976270048
1	27125	565826.656332846784	0.030976270048
1	27177	566795.524969799824	0.015488135024
1	27229	567764.409094887888	0.030976270048
1	27281	568733.293219975952	0.030976270048
1	27324	569702.161856928992	0.015488135024
1	27367	570671.030493882032	0.015488135024
1	27419	571639.914618970096	0.030976270048
1	27465	572608.79874405816	0.030976270048
1	27510	573577.682869146224	0.030976270048
1	27560	574546.551506099264	0.015488135024
1	27605	575515.435631187328	0.030976270048
1	27650	576484.319756275392	0.030976270048
1	27702	577453.203881363456	0.030976270048
1	27747	578422.08800645152	0.030976270048
1	27790	579390.95664340456	0.015488135024
1	27833	580359.8252803576	0.015488135024
1	27883	581328.69391731064	0.015488135024
1	27926	582297.578042398704	0.030976270048
1	27971	583266.462167486768	0.030976270048
1	28023	584235.346292574832	0.030976270048
1	28066	585204.214929527872	0.015488135024
1	28118	586173.099054615936	0.030976270048
1	28161	587141.983179704	0.030976270048
1	28204	588110.867304792064	0.030976270048
1	28247	589079.751429880128	0.030976270048
1	28288	590048.620066833168	0.015488135024
1	28340	591017.504191921232	0.030976270048
1	28385	591986.388317009296	0.030976270048
1	28437	592955.27244209736	0.030976270048
1	28482	593924.156567185424	0.030976270048
1	28527	594893.040692273488	0.030976270048
1	28572	595861.924817361552	0.030976270048
1	28622	596830.793454314592	0.015488135024
1	28663	597799.662091267632	0.015488135024
1	28708	598768.546216355696	0.030976270048
1	28753	599737.43034144376	0.030976270048
1	28805	600706.314466531824	0.030976270048
1	28850	601675.198591619888	0.030976270048
1	28913	602644.082716707952	0.030976270048
1	28958	603612.966841796016	0.030976270048
1	29003	604581.85096688408	0.030976270048
1	29048	605550.735091972144	0.030976270048
1	29098	606519.619217060208	0.030976270048
1	29143	607488.503342148272	0.030976270048
1	29189	608457.387467236336	0.030976270048
1	29232	609426.2715923244	0.030976270048
1	29282	610395.14022927744	0.015488135024
1	29327	611364.024354365504	0.030976270048
1	29370	612332.908479453568	0.030976270048
1	29415	613301.792604541632	0.030976270048
1	29465	614270.676729629696	0.030976270048
1	29510	615239.56085471776	0.030976270048
1	29560	616208.4294916708	0.015488135024
1	29605	617177.313616758864	0.030976270048
1	29650	618146.197741846928	0.030976270048
1	29698	619115.066378799968	0.015488135024
1	29743	620083.950503888032	0.030976270048
1	29788	621052.834628976096	0.030976270048
1	29833	622021.71875406416	0.030976270048
1	29885	622990.602879152224	0.030976270048
1	29928	623959.471516105264	0.015488135024
1	29971	624928.340153058304	0.015488135024
1	30021	625897.224278146368	0.030976270048
1	30066	626866.108403234432	0.030976270048
1	30109	627834.992528322496	0.030976270048
1	30161	628803.87665341056	0.030976270048
1	30206	629772.760778498624	0.030976270048
1	30249	630741.644903586688	0.030976270048
1	30294	631710.529028674752	0.030976270048
1	30344	632679.397665627792	0.015488135024
1	30387	633648.281790715856	0.030976270048
1	30432	634617.16591580392	0.030976270048
1	30475	635586.03455275696	0.015488135024
1	30527	636554.918677845024	0.030976270048
1	30583	637523.802802933088	0.030976270048
1	30624	638492.671439886128	0.015488135024
1	30674	639461.555564974192	0.030976270048
1	30717	640430.439690062256	0.030976270048
1	30762	641399.32381515032	0.030976270048
1	30812	642368.207940238384	0.030976270048
1	30858	643337.092065326448	0.030976270048
1	30899	644305.960702279488	0.015488135024
1	30949	645274.829339232528	0.015488135024
1	30994	646243.713464320592	0.030976270048
1	31039	647212.597589408656	0.030976270048
1	31089	648181.466226361696	0.015488135024
1	31134	649150.35035144976	0.030976270048
1	31175	650119.2189884028	0.015488135024
1	31220	651088.103113490864	0.030976270048
1	31270	652056.971750443904	0.015488135024
1	31315	653025.855875531968	0.030976270048
1	31367	653994.740000620032	0.030976270048
1	31410	654963.608637573072	0.015488135024
1	31455	655932.492762661136	0.030976270048
1	31507	656901.3768877492	0.030976270048
1	31552	657870.261012837264	0.030976270048
1	31595	658839.145137925328	0.030976270048
1	31645	659808.013774878368	0.015488135024
1	31688	660776.882411831408	0.015488135024
1	31731	661745.766536919472	0.030976270048
1	31776	662714.650662007536	0.030976270048
1	31826	663683.5347870956	0.030976270048
1	31871	664652.418912183664	0.030976270048
1	31921	665621.303037271728	0.030976270048
1	31966	666590.187162359792	0.030976270048
1	32009	667559.071287447856	0.030976270048
1	32059	668527.95541253592	0.030976270048
1	32104	669496.839537623984	0.030976270048
1	32154	670465.723662712048	0.030976270048
1	32199	671434.607787800112	0.030976270048
1	32244	672403.491912888176	0.030976270048
1	32303	673372.360549841216	0.015488135024
1	32348	674341.24467492928	0.030976270048
1	32391	675310.11331188232	0.015488135024
1	32432	676278.98194883536	0.015488135024
1	32482	677247.866073923424	0.030976270048
1	32527	678216.750199011488	0.030976270048
1	32580	679185.634324099552	0.030976270048
1	32621	680154.502961052592	0.015488135024
1	32664	681123.371598005632	0.015488135024
1	32714	682092.255723093696	0.030976270048
1	32759	683061.13984818176	0.030976270048
1	32804	684030.023973269824	0.030976270048
1	32856	684998.908098357888	0.030976270048
1	32901	685967.792223445952	0.030976270048
1	32944	686936.660860398992	0.015488135024
1	32994	687905.529497352032	0.015488135024
1	33037	688874.398134305072	0.015488135024
1	33087	689843.266771258112	0.015488135024
1	33128	690812.135408211152	0.015488135024
1	33171	691781.004045164192	0.015488135024
1	33216	692749.888170252256	0.030976270048
1	33268	693718.77229534032	0.030976270048
1	33313	694687.656420428384	0.030976270048
1	33358	695656.540545516448	0.030976270048
1	33408	696625.409182469488	0.015488135024
1	33453	697594.293307557552	0.030976270048
1	33496	698563.161944510592	0.015488135024
1	33541	699532.046069598656	0.030976270048
1	33591	700500.914706551696	0.015488135024
1	33636	701469.79883163976	0.030976270048
1	33679	702438.682956727824	0.030976270048
1	33722	703407.567081815888	0.030976270048
1	33774	704376.451206903952	0.030976270048
1	33815	705345.319843856992	0.015488135024
1	33858	706314.188480810032	0.015488135024
1	33910	707283.072605898096	0.030976270048
1	33951	708251.941242851136	0.015488135024
1	34003	709220.809879804176	0.015488135024
1	34055	710189.69400489224	0.030976270048
1	34098	711158.578129980304	0.030976270048
1	34143	712127.462255068368	0.030976270048
1	34186	713096.346380156432	0.030976270048
1	34237	714065.215017109472	0.015488135024
1	34282	715034.099142197536	0.030976270048
1	34327	716002.9832672856	0.030976270048
1	34379	716971.867392373664	0.030976270048
1	34422	717940.736029326704	0.015488135024
1	34465	718909.604666279744	0.015488135024
1	34510	719878.488791367808	0.030976270048
1	34562	720847.372916455872	0.030976270048
1	34605	721816.241553408912	0.015488135024
1	34648	722785.125678496976	0.030976270048
1	34698	723754.00980358504	0.030976270048
1	34741	724722.87844053808	0.015488135024
1	34786	725691.762565626144	0.030976270048
1	34836	726660.631202579184	0.015488135024
1	34879	727629.499839532224	0.015488135024
1	34924	728598.383964620288	0.030976270048
1	34976	729567.268089708352	0.030976270048
1	35017	730536.136726661392	0.015488135024
1	35062	731505.020851749456	0.030976270048
1	35110	732473.889488702496	0.015488135024
1	35155	733442.77361379056	0.030976270048
1	35205	734411.6422507436	0.015488135024
1	35248	735380.526375831664	0.030976270048
1	35293	736349.410500919728	0.030976270048
1	35338	737318.294626007792	0.030976270048
1	35390	738287.178751095856	0.030976270048
1	35435	739256.06287618392	0.030976270048
1	35487	740224.947001271984	0.030976270048
1	35532	741193.831126360048	0.030976270048
1	35577	742162.715251448112	0.030976270048
1	35622	743131.599376536176	0.030976270048
1	35678	744100.48350162424	0.030976270048
1	35728	745069.35213857728	0.015488135024
1	35773	746038.236263665344	0.030976270048
1	35816	747007.120388753408	0.030976270048
1	35866	747975.989025706448	0.015488135024
1	35911	748944.873150794512	0.030976270048
1	35957	749913.757275882576	0.030976270048
1	36009	750882.64140097064	0.030976270048
1	36054	751851.525526058704	0.030976270048
1	36097	752820.394163011744	0.015488135024
1	36142	753789.278288099808	0.030976270048
1	36192	754758.146925052848	0.015488135024
1	36235	755727.031050140912	0.030976270048
1	36278	756695.899687093952	0.015488135024
1	36330	757664.783812182016	0.030976270048
1	36375	758633.66793727008	0.030976270048
1	36425	759602.552062358144	0.030976270048
1	36468	760571.420699311184	0.015488135024
1	36511	761540.304824399248	0.030976270048
1	36554	762509.188949487312	0.030976270048
1	36604	763478.073074575376	0.030976270048
1	36649	764446.95719966344	0.030976270048
1	36697	765415.82583661648	0.015488135024
1	36740	766384.709961704544	0.030976270048
1	36785	767353.594086792608	0.030976270048
1	36828	768322.462723745648	0.015488135024
1	36878	769291.331360698688	0.015488135024
1	36923	770260.215485786752	0.030976270048
1	36966	771229.084122739792	0.015488135024
1	37016	772197.968247827856	0.030976270048
1	37059	773166.836884780896	0.015488135024
1	37102	774135.705521733936	0.015488135024
1	37154	775104.589646822	0.030976270048
1	37199	776073.473771910064	0.030976270048
1	37251	777042.357896998128	0.030976270048
1	37294	778011.226533951168	0.015488135024
1	37339	778980.110659039232	0.030976270048
1	37402	779948.994784127296	0.030976270048
1	37443	780917.863421080336	0.015488135024
1	37484	781886.732058033376	0.015488135024
1	37529	782855.61618312144	0.030976270048
1	37581	783824.500308209504	0.030976270048
1	37625	784793.368945162544	0.015488135024
1	37677	785762.253070250608	0.030976270048
1	37720	786731.137195338672	0.030976270048
1	37765	787700.021320426736	0.030976270048
1	37808	788668.9054455148	0.030976270048
1	37860	789637.789570602864	0.030976270048
1	37905	790606.673695690928	0.030976270048
1	37955	791575.542332643968	0.015488135024
1	38000	792544.426457732032	0.030976270048
1	38045	793513.310582820096	0.030976270048
1	38088	794482.19470790816	0.030976270048
1	38140	795451.078832996224	0.030976270048
1	38183	796419.962958084288	0.030976270048
1	38226	797388.831595037328	0.015488135024
1	38278	798357.715720125392	0.030976270048
1	38321	799326.599845213456	0.030976270048
1	38366	800295.48397030152	0.030976270048
1	38418	801264.368095389584	0.030976270048
1	38463	802233.252220477648	0.030976270048
1	38513	803202.120857430688	0.015488135024
1	38558	804171.004982518752	0.030976270048
1	38601	805139.889107606816	0.030976270048
1	38646	806108.77323269488	0.030976270048
1	38691	807077.657357782944	0.030976270048
1	38734	808046.541482871008	0.030976270048
1	38786	809015.425607959072	0.030976270048
1	38829	809984.294244912112	0.015488135024
1	38879	810953.178370000176	0.030976270048
1	38922	811922.06249508824	0.030976270048
1	38965	812890.93113204128	0.015488135024
1	39010	813859.815257129344	0.030976270048
1	39073	814828.699382217408	0.030976270048
1	39114	815797.568019170448	0.015488135024
1	39159	816766.452144258512	0.030976270048
1	39202	817735.336269346576	0.030976270048
1	39247	818704.22039443464	0.030976270048
1	39297	819673.104519522704	0.030976270048
1	39341	820641.973156475744	0.015488135024
1	39384	821610.857281563808	0.030976270048
1	39436	822579.741406651872	0.030976270048
1	39481	823548.625531739936	0.030976270048
1	39522	824517.494168692976	0.015488135024
1	39574	825486.37829378104	0.030976270048
1	39619	826455.262418869104	0.030976270048
1	39662	827424.146543957168	0.030976270048
1	39707	828393.030669045232	0.030976270048
1	39755	829361.899305998272	0.015488135024
1	39800	830330.783431086336	0.030976270048
1	39848	831299.652068039376	0.015488135024
1	39893	832268.53619312744	0.030976270048
1	39934	833237.40483008048	0.015488135024
1	39984	834206.288955168544	0.030976270048
1	40029	835175.173080256608	0.030976270048
1	40081	836144.057205344672	0.030976270048
1	40126	837112.941330432736	0.030976270048
1	40178	838081.8254555208	0.030976270048
1	40221	839050.709580608864	0.030976270048
1	40266	840019.593705696928	0.030976270048
1	40311	840988.477830784992	0.030976270048
1	40363	841957.361955873056	0.030976270048
1	40408	842926.24608096112	0.030976270048
1	40458	843895.130206049184	0.030976270048
1	40503	844864.014331137248	0.030976270048
1	40546	845832.882968090288	0.015488135024
1	40591	846801.767093178352	0.030976270048
1	40636	847770.651218266416	0.030976270048
1	40681	848739.53534335448	0.030976270048
1	40733	849708.419468442544	0.030976270048
1	40789	850677.303593530608	0.030976270048
1	40832	851646.187718618672	0.030976270048
1	40884	852615.071843706736	0.030976270048
1	40927	853583.9559687948	0.030976270048
1	40972	854552.840093882864	0.030976270048
1	41022	855521.724218970928	0.030976270048
1	41066	856490.592855923968	0.015488135024
1	41109	857459.476981012032	0.030976270048
1	41161	858428.361106100096	0.030976270048
1	41206	859397.24523118816	0.030976270048
1	41247	860366.1138681412	0.015488135024
1	41292	861334.997993229264	0.030976270048
1	41337	862303.882118317328	0.030976270048
1	41389	863272.766243405392	0.030976270048
1	41434	864241.650368493456	0.030976270048
1	41479	865210.53449358152	0.030976270048
1	41524	866179.418618669584	0.030976270048
1	41567	867148.302743757648	0.030976270048
1	41619	868117.186868845712	0.030976270048
1	41662	869086.070993933776	0.030976270048
1	41707	870054.95511902184	0.030976270048
1	41757	871023.839244109904	0.030976270048
1	41802	871992.723369197968	0.030976270048
1	41845	872961.592006151008	0.015488135024
1	41895	873930.476131239072	0.030976270048
1	41940	874899.360256327136	0.030976270048
1	41983	875868.228893280176	0.015488135024
1	42031	876837.097530233216	0.015488135024
1	42076	877805.98165532128	0.030976270048
1	42119	878774.865780409344	0.030976270048
1	42171	879743.749905497408	0.030976270048
1	42216	880712.634030585472	0.030976270048
1	42266	881681.518155673536	0.030976270048
1	42311	882650.4022807616	0.030976270048
1	42354	883619.286405849664	0.030976270048
1	42397	884588.170530937728	0.030976270048
1	42458	885557.054656025792	0.030976270048
1	42501	886525.923292978832	0.015488135024
1	42546	887494.807418066896	0.030976270048
1	42589	888463.69154315496	0.030976270048
1	42641	889432.575668243024	0.030976270048
1	42682	890401.444305196064	0.015488135024
1	42735	891370.328430284128	0.030976270048
1	42780	892339.212555372192	0.030976270048
1	42825	893308.096680460256	0.030976270048
1	42870	894276.98080554832	0.030976270048
1	42920	895245.864930636384	0.030976270048
1	42965	896214.749055724448	0.030976270048
1	43017	897183.633180812512	0.030976270048
1	43062	898152.517305900576	0.030976270048
1	43107	899121.40143098864	0.030976270048
1	43152	900090.285556076704	0.030976270048
1	43202	901059.169681164768	0.030976270048
1	43245	902028.053806252832	0.030976270048
1	43297	902996.937931340896	0.030976270048
1	43342	903965.82205642896	0.030976270048
1	43385	904934.706181517024	0.030976270048
1	43430	905903.590306605088	0.030976270048
1	43482	906872.474431693152	0.030976270048
1	43527	907841.358556781216	0.030976270048
1	43572	908810.24268186928	0.030976270048
1	43622	909779.126806957344	0.030976270048
1	43667	910748.010932045408	0.030976270048
1	43712	911716.895057133472	0.030976270048
1	43762	912685.779182221536	0.030976270048
1	43807	913654.6633073096	0.030976270048
1	43852	914623.547432397664	0.030976270048
1	43895	915592.416069350704	0.015488135024
1	43945	916561.284706303744	0.015488135024
1	43990	917530.168831391808	0.030976270048
1	44033	918499.052956479872	0.030976270048
1	44083	919467.921593432912	0.015488135024
1	44126	920436.805718520976	0.030976270048
1	44182	921405.68984360904	0.030976270048
1	44227	922374.573968697104	0.030976270048
1	44279	923343.458093785168	0.030976270048
1	44324	924312.342218873232	0.030976270048
1	44369	925281.226343961296	0.030976270048
1	44419	926250.11046904936	0.030976270048
1	44465	927218.994594137424	0.030976270048
1	44517	928187.878719225488	0.030976270048
1	44558	929156.747356178528	0.015488135024
1	44603	930125.631481266592	0.030976270048
1	44655	931094.515606354656	0.030976270048
1	44700	932063.39973144272	0.030976270048
1	44743	933032.26836839576	0.015488135024
1	44795	934001.152493483824	0.030976270048
1	44840	934970.036618571888	0.030976270048
1	44885	935938.920743659952	0.030976270048
1	44935	936907.804868748016	0.030976270048
1	44980	937876.68899383608	0.030976270048
1	45032	938845.573118924144	0.030976270048
1	45077	939814.457244012208	0.030976270048
1	45118	940783.325880965248	0.015488135024
1	45161	941752.210006053312	0.030976270048
1	45213	942721.094131141376	0.030976270048
1	45254	943689.962768094416	0.015488135024
1	45304	944658.831405047456	0.015488135024
1	45347	945627.71553013552	0.030976270048
1	45390	946596.599655223584	0.030976270048
1	45431	947565.468292176624	0.015488135024
1	45481	948534.336929129664	0.015488135024
1	45526	949503.221054217728	0.030976270048
1	45569	950472.089691170768	0.015488135024
1	45610	951440.958328123808	0.015488135024
1	45660	952409.826965076848	0.015488135024
1	45705	953378.711090164912	0.030976270048
1	45755	954347.595215252976	0.030976270048
1	45800	955316.47934034104	0.030976270048
1	45863	956285.363465429104	0.030976270048
1	45908	957254.247590517168	0.030976270048
1	45958	958223.131715605232	0.030976270048
1	46003	959192.015840693296	0.030976270048
1	46046	960160.884477646336	0.015488135024
1	46089	961129.7686027344	0.030976270048
1	46142	962098.652727822464	0.030976270048
1	46185	963067.536852910528	0.030976270048
1	46237	964036.420977998592	0.030976270048
1	46282	965005.305103086656	0.030976270048
1	46327	965974.18922817472	0.030976270048
1	46372	966943.073353262784	0.030976270048
1	46424	967911.957478350848	0.030976270048
1	46469	968880.841603438912	0.030976270048
1	46514	969849.725728526976	0.030976270048
1	46557	970818.60985361504	0.030976270048
1	46602	971787.493978703104	0.030976270048
1	46654	972756.378103791168	0.030976270048
1	46699	973725.262228879232	0.030976270048
1	46744	974694.146353967296	0.030976270048
1	46796	975663.03047905536	0.030976270048
1	46837	976631.8991160084	0.015488135024
1	46880	977600.76775296144	0.015488135024
1	46932	978569.651878049504	0.030976270048
1	46975	979538.536003137568	0.030976270048
1	47020	980507.420128225632	0.030976270048

