version 2
run General-0-20220719-22:09:20-8860
attr configname General
attr datetime 20220719-22:09:20
attr experiment General
attr inifile omnetpp.ini
attr iterationvars ""
attr iterationvarsf ""
attr measurement ""
attr network Raft
attr processid 8860
attr repetition 0
attr replication #0
attr resultdir results
attr runnumber 0
attr seedset 0
param Raft.numServers 5
param Raft.numClients 2
param Raft.channel_omission_probability 0.01
param Raft.networkDelaysPresent true
param Raft.displayLogs false
param Raft.disableStatsCollector false
param Raft.server_node[*].server.canFail true
param Raft.server_node[*].server.server_failure_probability 0.2
param Raft.server_node[*].server.leader_failure_probability 0.2
param Raft.client_node[*].client.sendCommandTimeout 0.3s
param Raft.server_node[*].queue_servers[*].avgServiceTime 0.007s
param Raft.server_node[*].queue_clients[*].avgServiceTime 0.007s

vector 0 Raft.statsCollector consensusTime:vector ETV
attr interpolationmode linear
attr title "Time required to reach consensus on a new leader, since network is leaderless, vector"
attr unit s
vector 1 Raft.statsCollector consensusMessages:vector ETV
attr interpolationmode linear
attr title "Number of messages exchanged on the network to reach consensus among servers, vector"
vector 2 Raft.client_node[1].client commandResponseTime:vector ETV
attr interpolationmode linear
attr title "Total response time of client request, vector"
attr unit s
vector 3 Raft.client_node[0].client commandResponseTime:vector ETV
attr interpolationmode linear
attr title "Total response time of client request, vector"
attr unit s
vector 4 Raft.statsCollector timeToRecoverLog:vector ETV
attr interpolationmode linear
attr title "Time required for a server to recover its log to the most up to date version possible, vector"
attr unit s
0	54	0.245040872249	0.031492652731
0	180	0.52913542229	0.027671787525
0	1456	3.107781643494	0.030767097519
0	2717	5.938547303476	0.218301021366
0	4265	9.57478560813	0.022656074551
0	5745	12.766365454042	0.029321448613
0	6119	13.485089603943	0.024927798694
0	7412	17.016667368668	0.319838041097
0	8970	20.339345699478	0.02173808558
0	9119	20.612945746275	0.032252304931
0	9381	21.452873864935	0.021989888809
0	12737	28.813421930252	0.040816047563
0	12956	29.450884403797	0.019089903206
0	13385	30.82911106086	0.01923979245
0	14111	32.472382566424	0.024062566048
0	14231	32.736108671152	0.04083584615
0	14343	32.99367913182	0.029662470032
0	14932	34.345814188278	0.462648003495
0	15050	34.623379439196	0.034884509914
0	17841	41.269174882964	0.026431975989
0	19425	45.23387220481	0.020282347298
0	19527	45.583593173522	0.06415103288
0	21286	49.703471268759	0.264646273799
0	21511	50.530285865494	0.282977009346
0	22807	53.243470068947	0.027185004416
0	22931	53.439874611787	0.01999254065
0	23631	54.953874171745	0.033712683877
0	23987	55.844338943177	0.253424472263
0	24064	56.05229805516	0.031068308394
0	24846	58.479110358393	0.041619093442
0	25375	60.078708606893	0.030877204921
0	28416	67.393688015448	0.045849749384
0	28870	68.585975989221	0.02401725236
0	28942	68.810245932969	0.026723266691
0	31384	75.500078291688	0.027627366304
0	31623	75.752128172276	0.03066063883
0	32011	76.804457283832	0.038989708367
0	32279	77.62041466465	0.023415762908
0	32371	77.932654277718	0.025868297505
0	32507	78.53721021872	0.025345022245
0	33328	80.352740997352	0.025312718651
0	33672	81.434413664894	0.023662806846
0	34309	82.793578345457	0.020906445142
0	35490	85.952228712097	0.021026264736
0	38672	94.437875572545	0.036721086125
0	39538	96.685656723335	0.035157329204
0	40727	100.237746824923	0.401017648579
0	42238	103.056064261882	0.028533337268
0	42958	104.797554250437	0.02635963552
0	44015	107.291123280673	0.029993666605
0	44844	109.318247785648	0.021567863171
0	47007	114.45878082401	0.236842556742
0	47317	115.455138457977	0.023670817265
0	47476	116.002026026427	0.031090486466
0	49676	121.596659430683	0.022305059531
0	50348	122.9764189471	0.034579849866
0	50546	123.455688629557	0.03914788162
0	50856	124.278007632262	0.024218169519
0	51776	126.959972904254	0.028426206745
0	52556	129.363012408881	0.02400197189
0	53605	132.153972147926	0.026224041372
0	53740	132.775144781114	0.280619606417
0	53951	133.214248450931	0.253722578667
0	54253	134.039373978888	0.028363383038
0	55498	138.010560742595	0.026809534612
0	55811	138.871692104045	0.224984339468
0	57576	143.809963211372	0.025766628113
0	60608	151.353632573109	0.022453969636
0	63913	159.615307760423	0.023209995352
0	63991	159.79518543456	0.025630421504
0	64568	161.215569188236	0.020716992204
0	65338	162.898987025793	0.028226032421
0	65501	163.123570181538	0.022477778314
0	66605	165.985790154609	0.027107638232
0	67124	167.467768666124	0.022997520856
0	67333	168.18592064736	0.034026968254
0	69446	173.488110622147	0.044549658689
0	71124	177.893131616737	0.236729942319
0	72179	180.206906606996	0.035036553793
0	72838	182.111056964154	0.048694284369
0	74908	186.735157947415	0.021744796197
0	75282	187.827228436161	0.03397786152
0	76584	191.745240518286	0.023063221306
0	76709	191.946383307574	0.0205835576
0	78076	195.413998060751	0.044829241654
0	79139	198.088051946533	0.033818054776
0	80596	201.360871323922	0.023942729087
0	81679	203.829979437982	0.023621129035
0	81775	204.069059968339	0.026673934486
0	81837	204.332239816857	0.043529841641
0	81918	204.525222251371	0.021785146078
0	82042	204.899369000058	0.025132349876
0	82549	206.462076971597	0.522183888015
0	82691	206.85020000961	0.196834787338
0	84829	212.445746024602	0.029219790303
0	87565	220.14373166684	0.036872713569
0	88606	222.492335811225	0.026705634643
0	89543	225.209648503744	0.031776564363
0	89690	225.392307451286	0.023409723144
0	90074	226.572089383575	0.029136099461
0	90181	226.999890177676	0.019453478137
0	90261	227.332212603618	0.024383946873
0	91004	228.805109657418	0.241172444702
0	93972	237.308171681327	0.021392491204
0	95944	242.860127118539	0.750666022551
0	96443	244.606193161659	0.030777219732
0	96528	244.973202381849	0.023668242508
0	98103	248.744063270991	0.0427044335
0	98565	250.098964677029	0.197620619253
0	99142	251.559743151312	0.226273886618
0	102856	261.553014602905	0.018885899766
0	103699	264.042867952808	0.037150797649
0	103745	264.265353690719	0.052961331252
0	105168	268.417551918742	0.224906085961
0	105368	268.756666069643	0.05324777014
0	107138	273.852612395443	0.034092654259
0	108558	277.755024169696	0.038176905287
0	108651	278.06109330587	0.03692534397
0	108961	278.784853329995	0.027605087395
0	109318	280.220657021204	0.025187461272
0	109731	281.164957506746	0.028553823984
0	111811	285.470858758849	0.038642005469
0	111935	285.919536045551	0.023195270472
0	113109	288.380481192199	0.021829510401
0	113956	290.190078730746	0.026885166353
0	114147	290.930295917011	0.04057036357
0	114383	291.763910954292	0.024630724932
0	114522	292.231988857866	0.021898838495
0	115997	295.538653229473	0.028935849878
0	117154	298.751038455372	0.23038594791
0	117709	300.997846402498	0.683742625661
0	117789	301.368224865703	0.204782570731
0	120677	307.130372666049	0.197850710837
0	122137	310.654225420786	0.028159235295
0	122348	311.458830798028	0.025315169651
0	122454	311.665594031227	0.029200094845
0	122926	312.976948459673	0.02306701131
0	123838	315.900510543773	0.274279945861
0	124557	318.081469579977	0.02328092501
0	124848	318.854721452855	0.037671464854
0	125948	320.941726602616	0.021257648855
0	126343	321.915959176274	0.243725072024
0	126500	322.747740946036	0.464002526591
0	127073	324.632399843632	0.039093262861
0	127285	325.207241098919	0.022019427178
0	129059	330.572227203819	0.040366289996
0	130331	333.931308529003	0.034260186945
0	130744	334.739503175455	0.021994802906
0	131900	339.332496835009	0.984595973341
0	132142	339.645911255125	0.03884043249
0	133369	342.776398562453	0.025096152691
0	133523	343.108401993587	0.030233416001
0	133875	344.968686799561	0.703447761393
0	134423	346.298976330421	0.028480589415
0	135073	347.878035543749	0.213869438988
0	138550	356.480897521337	0.034695461169
0	140739	361.772483083353	0.026260231507
0	141735	365.31612539284	0.030291657296
0	142064	366.309082865686	0.025196576061
0	142207	366.700226528727	0.241216209632
0	142794	367.739205365101	0.034118138253
0	143547	370.111159282651	0.027542083177
0	147019	377.492018760176	0.043265345925
0	153021	392.055562048296	0.023929938101
0	153559	393.607255532479	0.061542627721
0	153638	393.956085394935	0.032392516565
0	153924	394.751288962595	0.023755950383
0	155453	398.321068464323	0.021276776381
0	155765	399.058475130988	0.026681266954
0	157803	403.668862391584	0.021507217437
0	159549	407.427583504093	0.024901541756
0	159670	407.685831998164	0.033337549106
0	161557	412.229196492185	0.028162590579
0	164350	418.855531308186	0.022386160793
0	165088	420.800555611176	0.220930276624
0	167785	426.965956272488	0.025618941064
0	167858	427.172996777728	0.033384525029
0	167978	427.432756845465	0.031932852438
0	169412	431.194133173982	0.022784832294
0	169502	431.412582533141	0.021468668315
0	172366	438.518684048732	0.02640688505
0	173668	441.958064321699	0.020949459424
0	174423	443.885049295702	0.028863036138
0	174517	444.190774625222	0.024349514972
0	174700	444.726284969542	0.028988115183
0	174824	445.208993181638	0.223638018526
0	176018	449.24504804815	0.02218232354
0	178088	454.041830212057	0.032551243342
0	182765	464.373957499118	0.033238349175
0	183486	466.28866641271	0.020905127021
0	184258	467.905840144417	0.026938078106
0	184888	470.04362951904	0.039702553997
0	185531	471.862608314837	0.205182826193
0	189215	480.700397828167	0.023492944895
0	189881	482.783946800961	0.026627697426
0	190853	485.617384891243	0.023014093064
0	191165	486.440237670903	0.025046558652
0	192129	489.406620887039	0.044708171828
0	198183	507.005400303985	0.275082095136
0	198786	508.385530068915	0.024493769135
0	199059	508.787380748682	0.030532934931
0	201074	511.947181291916	2.942200924363
0	202163	515.315408246412	0.269258426868
0	204054	519.591399397914	0.024120703991
0	204558	520.654054057804	0.291766695931
0	204784	521.465790968883	0.034355379984
0	205080	522.963427630519	0.02891476471
0	205371	523.726182781333	0.027329370814
0	205460	523.928411009247	0.02036105009
0	207043	527.401273938874	0.022136681001
0	207244	527.921564233874	0.025703931552
0	209055	531.206940734192	0.019809178805
0	209334	532.369713407924	0.258536962311
0	209446	532.670384820271	0.047082634791
0	210653	536.046170455399	0.018450188367
0	210715	536.245083233751	0.028103453321
0	210841	536.949654159621	0.252081057538
0	210918	537.163261094031	0.05232778717
0	213855	544.073332136241	0.218899522594
0	213953	544.294073017099	0.02149686148
0	215276	548.292460683556	0.030393493716
0	216163	550.744604433935	0.028863956753
0	216842	553.39734564193	1.445627397099
0	217554	555.691129298134	0.01753515612
0	218323	558.283716176289	0.021674765596
0	219058	559.804139589481	0.030738881932
0	221467	565.253715015171	0.023725358857
0	222266	567.923555336516	0.256661480768
0	223192	569.828457436266	0.033850207979
0	225594	575.594677448153	0.043627356502
0	226095	576.944658897971	0.027615283281
0	226422	577.510229442137	0.253435221152
0	228565	581.804152057779	0.024180919746
0	228810	582.80640350008	0.03007045208
0	229008	583.069425259413	0.038747931163
0	231383	588.840957549846	0.028882528707
0	233650	594.304287206285	0.041150109669
0	235148	598.258426093698	0.031666781302
0	236974	602.556185798511	0.026683041104
0	238286	605.735801553769	0.027089774302
0	238695	606.605074885183	0.028425770869
0	241560	614.533035462139	0.022618788596
0	242867	618.071753352668	0.022480991849
0	244379	621.833131341309	0.0391161633
0	244747	622.846865980102	0.028907481964
0	245076	623.977940818796	0.243640435542
0	247336	629.351272747769	0.024749671157
0	249534	634.950694935348	0.027681145784
0	250643	637.914554103059	0.02462266305
0	252494	642.690371660249	0.270541129765
0	252979	643.897920076755	0.04143939992
0	254975	649.030256654132	0.501963056997
0	257187	654.477889379374	0.050686348393
0	258061	656.707903765937	0.02715743844
0	259826	661.223773879147	1.00123583135
0	260121	661.874894040946	0.0368472909
0	260598	662.957198433354	0.02684234334
0	262405	667.921373193763	0.233099311661
0	263332	669.992183924874	0.026525328345
0	263809	670.933835686376	0.031932239692
0	266579	678.923641296928	0.031657295604
0	268207	682.720284727742	0.024398466266
0	268835	684.423743581664	0.031502323845
0	268993	684.75525629367	0.024806175517
0	269452	685.968768467339	0.024567472574
0	269869	687.000848443491	0.038740426772
0	270113	687.607964654008	0.020941636716
0	270419	688.400787825142	0.024247083
0	272557	693.305784052814	0.020385170543
0	272707	693.518214709854	0.024040572065
0	274296	698.208395252341	0.030776426645
0	275851	702.905773353673	0.028926193691
0	276865	705.913442147551	0.030589115258
0	277063	706.240507952878	0.033886960876
0	278023	709.69357151914	0.021253252801
0	278681	711.561387104021	0.025599080501
0	279328	713.43339260556	0.040775670023
0	279716	714.588067775243	0.029807781081
0	280930	716.95842572826	0.042855164905
0	281476	718.682188544725	0.033714248475
0	281549	718.989586846511	0.025128045488
0	282002	720.292804342445	0.020501914605
0	283682	724.781572262364	0.020249867906
0	283862	725.441905682912	0.391724857181
0	284291	726.53432103519	0.215497334639
0	287331	733.809230276966	0.271412966337
0	288128	735.332999407469	0.02340436204
0	289732	739.073454589038	0.028600362246
0	290111	740.359707388064	0.024991949989
0	290256	740.891417924734	0.034775914915
0	292341	745.381672182836	0.024902304971
0	297035	756.204281253418	0.023163841849
0	299140	760.783535139805	0.028033136474
0	299526	762.269397994727	0.398826806462
0	299629	762.533758884844	0.018982351298
0	299837	763.087656232253	0.033907415614
0	299998	763.765455969387	0.228132178668
0	301466	767.96023037436	0.031655179985
0	303882	774.38498476932	0.023548470584
0	304407	775.882692763118	0.220496230008
0	304576	776.125238224032	0.032129670253
0	304766	776.771567644052	0.022300814089
0	304946	777.224289437312	0.029023291603
0	305375	778.374468529615	0.021051080985
0	305850	779.747989735983	0.023628451361
0	306441	781.384505891898	0.238416966677
0	306515	781.582944749461	0.032982536829
0	306584	781.930115150333	0.052066808902
0	307323	783.877067649283	0.019646793081
0	307528	784.165687759497	0.050266812827
0	310176	790.371816528298	0.209897232178
0	310366	790.696450071103	0.032005866604
0	313487	798.015347150492	0.037094491712
0	313581	798.344772649638	0.028971761179
0	315388	802.723196926496	0.049813898116
0	315664	803.963542451932	0.038965747676
0	315786	804.383373156205	0.038060233424
0	317029	807.256387093784	0.021127183605
0	317604	808.666341624152	0.028616908692
0	320110	815.610153594201	0.029365255526
0	322504	821.030096573395	0.039700352628
0	324063	825.297610528778	0.021257442371
0	325264	828.416815768032	0.02535522344
0	326339	831.793258875301	0.020675920871
0	326465	832.207882874715	0.022055933876
0	327205	833.842669167432	0.027247435938
0	327381	834.156753764003	0.025429358271
0	327437	834.412441008925	0.025201654597
0	327531	834.742492314148	0.027796046618
0	327694	834.976126280237	0.024406509513
0	328542	836.430856978528	0.041449411219
0	328716	837.019587647875	0.025926175708
0	329235	838.828289944348	0.028062199078
0	330709	842.754606767676	0.316263403535
0	331603	845.85483441469	0.527639941737
0	332737	848.378088730881	0.028688018806
0	333622	850.520138183097	0.021747859532
0	335656	855.024077786688	0.030349520851
0	335741	855.458270251032	0.215771896997
0	335819	855.704965088339	0.022477064353
0	337142	858.090823926289	0.0182892904
0	337414	858.773360643053	0.027270518161
0	338413	861.447098125514	0.025214442885
0	343598	876.035090967735	0.037239164085
0	344020	876.963142088955	0.021704952187
0	344689	879.33316451897	0.422308235694
0	344804	879.689965515872	0.04845264884
0	346209	883.849622585442	0.268089421408
0	346593	884.766812222141	0.225233953402
0	347729	887.507561584013	0.022613407391
0	347799	887.70940983877	0.017868794392
0	348679	889.851226859751	0.028618281234
0	349346	892.006935290273	0.031187252431
0	349985	894.011980908304	0.0202676809
0	350981	896.968191679841	0.02368576084
0	351602	898.735635930858	0.193544061161
0	354138	905.350902052584	0.018913792997
0	356050	909.682107408164	0.030127154314
0	356139	909.956546256547	0.037708053825
0	356822	912.102007744843	0.028666851021
0	357230	913.012144858375	0.030123239971
0	360520	921.356858908065	0.024521820783
0	360603	921.572092756827	0.024107280297
0	362144	925.515980103304	0.023354830643
0	363149	927.820664457416	0.207934330384
0	363608	929.252762842425	0.021096868637
0	364141	931.245059873959	0.05378034379
0	365199	933.914926170125	0.028268631183
0	365333	934.401941534579	0.027402745419
0	365463	934.657543192186	0.034760674301
0	365885	936.17953362261	0.192644516706
0	366299	937.35853454406	0.024336096443
0	366804	938.543442734171	0.02618056216
0	367903	941.03167261319	0.026536111885
0	368034	941.223878743592	0.023236607546
0	369977	946.757054449862	0.030807152061
0	372633	953.491154047043	0.305173184955
0	376118	961.188824265933	0.027257954651
0	376310	961.448422273978	0.02825016895
0	377195	963.85613461717	0.021144851084
0	378333	966.118879120567	0.029874157968
0	378576	966.741048530739	0.020211948166
0	379302	969.498743127172	0.676342830097
0	381587	976.794503738767	0.240467786168
0	381920	977.989601545706	0.028302083353
0	382171	978.637802884535	0.0289295972
0	382354	978.949077080055	0.027099031571
0	385077	985.45938313648	0.052302199995
0	386244	988.804532926521	0.023155627905
0	387773	993.094805078646	0.022312972232
0	389781	998.838681481815	0.028180987725
0	392050	1004.207504686493	0.025983027264
0	393312	1007.53027468857	0.199697413612
0	394467	1010.162318862764	0.024045927083
0	395560	1012.76912473144	0.034893840161
0	395866	1013.606341750333	0.039806840124
0	396511	1016.073053336415	0.029809244853
0	399207	1023.440262837459	0.024004990115
0	399401	1023.737113260516	0.036575016145
0	399503	1024.035475667127	0.023793496255
0	399774	1024.298238423678	0.034079642635
0	400226	1025.179191627989	0.033180899821
0	400320	1025.526651672902	0.049182871509
0	401521	1028.576816726782	0.029037875674
0	404468	1035.308133145329	0.025653706521
0	405384	1037.341863271562	0.027888452485
0	408390	1043.944427045381	0.045448693138
0	408494	1044.27151898087	0.025312004623
0	408765	1044.971680011127	0.023886965885
0	409430	1046.132471786679	0.027312905277
0	414293	1057.928017437285	0.237286813143
0	414579	1058.811868216735	0.030563709806
0	416023	1062.260488096714	0.022875236952
0	416205	1062.87775918681	0.023740492302
0	419300	1069.835852502048	0.027470089504
0	422092	1077.944681163547	0.031125752093
0	422621	1079.720145225565	0.02247686695
0	423324	1081.322527354775	0.026824437062
0	424450	1083.745486747829	0.031519217924
0	424774	1084.655470174148	0.025661781667
0	427170	1090.027801770033	0.054450956263
0	427363	1090.857123979311	0.036155628716
0	430667	1098.882640442435	0.026791196678
0	430886	1099.864904311708	0.19915125164
0	432899	1104.888747995868	0.027375501899
0	434809	1110.938732345238	0.240541457595
0	438271	1121.681496114837	0.26982046322
0	438445	1122.139109238366	0.051357994014
0	438867	1123.120694564562	0.025064226821
0	439119	1123.692125901552	0.029856751895
0	439940	1125.830547137999	0.027605632725
0	440049	1126.06580606733	0.024452020562
0	440178	1126.429156329147	0.022495439869
0	441148	1128.33897727506	0.031023642337
0	441596	1129.407541062814	0.036347763389
0	441683	1129.632032650176	0.027622504299
0	441930	1130.348443409904	0.032899966629
0	445235	1138.489554651256	0.035043443155
0	445585	1139.198398318397	0.036098321967
0	445706	1139.653575253895	0.022424419408
0	446958	1143.07177149963	0.033710211846
0	448797	1147.678611738287	0.332672491902
0	449097	1148.563020125948	0.020863757194
0	453373	1159.679067897633	0.02637411273
0	455026	1164.653724580519	0.024669392071
0	455527	1166.146551740662	0.016955509532
0	455806	1167.256308323148	0.032783971227
0	455948	1167.592530752546	0.039114704901
0	456972	1169.325093969737	0.197159774821
0	457295	1169.595384368918	0.03051725704
0	457882	1171.278770825674	0.033603247057
0	459131	1174.204644086588	0.026918484653
0	459290	1174.459617451636	0.0194892297
0	461041	1178.599520667944	0.026380023571
0	461354	1179.295125329187	0.019894127908
0	462847	1182.49530031396	0.027422020597
0	463285	1183.49982549299	0.020676254091
0	465226	1187.885172951781	0.037181241778
0	466238	1190.538079322043	0.018654583638
0	468726	1197.132255618518	0.040834537812
0	469100	1198.169031359719	0.029552874375
0	469211	1198.507835675003	0.024231993379
0	469319	1198.955038464965	0.034959676711
0	469642	1200.358585991216	0.035398952761
0	470486	1202.596587817672	0.025806182397
0	474777	1211.657663245826	0.033678429843
0	477611	1218.232166172764	0.023536739247
0	478034	1219.849698845414	0.035807524394
0	478577	1221.21117396041	0.229155311193
0	479271	1222.499086309893	0.026304020208
0	479716	1224.188640965021	0.027031259097
0	480198	1225.48526007235	0.034953228937
0	480533	1226.50942204765	0.191902647624
0	482092	1230.559986805179	0.074162061636
0	483010	1233.382206441573	0.027371294419
0	483185	1233.829543330514	0.028103572505
0	484511	1236.685769322596	0.023220336123
0	485633	1239.613468147686	0.034078704167
0	485948	1240.881708017422	0.798289474033
0	486624	1243.555956132348	0.025398748053
0	488304	1247.226400875582	0.037372285661
0	490468	1252.468310615355	0.02683743814
0	490716	1252.877073468435	0.031133249434
0	492720	1257.907111076647	0.031472045812
0	492906	1258.592483387567	0.0323134559
0	493359	1260.2143235071	0.032955211994
0	493650	1261.466183198771	0.025683049557
0	493795	1262.194643654728	0.192199822184
0	494018	1262.869003935593	0.022952310886
0	494151	1263.187961954308	0.023222910762
0	494391	1263.769885155521	0.025413055115
0	495561	1267.36457265198	0.028136546192
0	495983	1268.478586439731	0.026912766524
0	496174	1269.215068588184	0.03384082437
0	497994	1273.781036630176	0.033598377272
0	498122	1274.059092487244	0.03817044418
0	499193	1276.942914047884	0.034798397536
0	499665	1278.514591237501	0.038145189724
0	501108	1282.022969396348	0.034958482223
0	501586	1283.101903209616	0.026286066421
0	502924	1287.054596734201	0.225510621405
0	503148	1287.741665419982	0.029454252427
0	503243	1288.031602358808	0.03261159225
0	503779	1289.477948108308	0.266066926005
0	504198	1290.659676144744	0.434941842304
0	505812	1295.506161536773	0.226145923507
0	505869	1295.760883067565	0.023522697761
0	507256	1299.174113123209	0.030444932301
0	507513	1299.462229245965	0.030979493567
0	507822	1300.418851922548	0.025053655333
0	510222	1306.156081096155	0.02431284626
0	511767	1311.104651497837	0.025546809202
0	511919	1311.486634312141	0.028236522188
0	511983	1311.70882773343	0.01975653537
0	513690	1315.888182491251	0.043067420769
0	515158	1319.458018069202	0.016676223864
0	516484	1323.074527293904	0.022656272181
0	516840	1324.03832078017	0.020663858598
0	517685	1326.553780697593	0.034289707093
0	519718	1331.857641699069	0.020200280345
0	521524	1336.150880239501	0.023502174349
0	521733	1336.656846832764	0.041732692779
0	522366	1338.358692231634	0.039620249752
0	522695	1339.187773831849	0.032998394897
0	523749	1342.601074305559	0.2001322863
0	523851	1342.789520043015	0.023326085021
0	524744	1345.225143199562	0.028049743061
0	527214	1351.290074476833	0.311603714659
0	528814	1355.094908307526	0.025515989953
0	529135	1355.748992224423	0.023489401295
0	531637	1361.425871054461	0.019674667997
0	532527	1362.931819498897	0.035089992924
0	532608	1363.147028289111	0.023983676952
0	534413	1366.837865588067	0.029522302318
0	534772	1367.996616110901	0.026105153654
0	536602	1372.584466928483	0.024334058332
0	537439	1374.363273996281	0.026803287472
0	538493	1377.095674513471	0.023262549893
0	538619	1377.669403921045	0.229066267132
0	539540	1379.913649569269	0.020703611942
0	539679	1380.453447992881	0.239152745407
0	541275	1385.630553278788	0.03077475629
0	541634	1387.101885600925	0.054621068138
0	542111	1388.380427093668	0.024475263973
0	542446	1389.400150650846	0.210042996988
0	543565	1392.417928520715	0.029538321049
0	545265	1397.442511861567	0.030919578569
0	547907	1404.739408029393	0.033364240369
0	547956	1404.930920671326	0.027541874569
0	548119	1405.46711173872	0.024878412308
0	548751	1407.463584339433	0.216344831346
0	549578	1410.031470684346	0.02751076009
0	550790	1412.790035622115	0.025150731999
0	553072	1418.121844598824	0.026099601644
0	554790	1421.997859396787	0.022561235477
0	556100	1425.548301027425	0.017219470491
0	556437	1426.297177721671	0.032728306073
0	556634	1427.01405675394	0.018954473581
0	557715	1429.793693816951	0.244311764304
0	557961	1430.585971522505	0.219323097638
0	558211	1431.353189537334	0.235837169372
0	559261	1434.037837599673	0.486878216887
0	560138	1436.182705978215	0.029157978167
0	560600	1437.409058808942	0.030334313061
0	560773	1437.918961763985	0.027080849495
0	560852	1438.162931412991	0.041525178065
0	561021	1438.418949651939	0.019088202703
0	564391	1446.385112216836	0.035801787094
0	564498	1446.581516472449	0.023652291217
0	564582	1447.03276050158	0.024788837827
0	564754	1447.695153465949	0.054941871748
0	564822	1447.96668467656	0.04314143247
0	565587	1450.088356685054	0.02885872235
0	565847	1450.826494427191	0.021189738336
0	567739	1456.456975028492	0.023613543115
0	567885	1456.800807597064	0.023849698993
0	568035	1457.012216261905	0.020416226263
0	569750	1461.679160576151	0.197798357574
0	571360	1466.465287052562	0.211349918433
0	571661	1467.038562031175	0.03209121692
0	573699	1472.612516143523	0.032611490691
0	573971	1473.115537918533	0.032279163271
0	574466	1474.523407193276	0.027314817532
0	576864	1480.536314324609	0.021208916855
0	578161	1483.468620976128	0.028365173582
0	579137	1485.678358261409	0.023804920992
0	580508	1489.414185108785	0.031109454417
0	582088	1492.748664413654	0.277324451076
0	585572	1501.336443844945	0.036309686189
0	589683	1509.739371295127	0.052320226903
1	54	0.245040872249	7
1	180	0.52913542229	5
1	1456	3.107781643494	4
1	2717	5.938547303476	7
1	4265	9.57478560813	4
1	5745	12.766365454042	5
1	6119	13.485089603943	4
1	7412	17.016667368668	10
1	8970	20.339345699478	8
1	9119	20.612945746275	5
1	9381	21.452873864935	5
1	12737	28.813421930252	3
1	12956	29.450884403797	3
1	13385	30.82911106086	4
1	14111	32.472382566424	3
1	14231	32.736108671152	4
1	14343	32.99367913182	5
1	14932	34.345814188278	15
1	15050	34.623379439196	4
1	17841	41.269174882964	4
1	19425	45.23387220481	8
1	19527	45.583593173522	4
1	21286	49.703471268759	15
1	21511	50.530285865494	7
1	22807	53.243470068947	6
1	22931	53.439874611787	4
1	23631	54.953874171745	3
1	23987	55.844338943177	24
1	24064	56.05229805516	5
1	24846	58.479110358393	4
1	25375	60.078708606893	3
1	28416	67.393688015448	4
1	28870	68.585975989221	3
1	28942	68.810245932969	4
1	31384	75.500078291688	9
1	31623	75.752128172276	4
1	32011	76.804457283832	4
1	32279	77.62041466465	4
1	32371	77.932654277718	3
1	32507	78.53721021872	4
1	33328	80.352740997352	5
1	33672	81.434413664894	5
1	34309	82.793578345457	4
1	35490	85.952228712097	5
1	38672	94.437875572545	3
1	39538	96.685656723335	4
1	40727	100.237746824923	7
1	42238	103.056064261882	3
1	42958	104.797554250437	4
1	44015	107.291123280673	4
1	44844	109.318247785648	5
1	47007	114.45878082401	5
1	47317	115.455138457977	5
1	47476	116.002026026427	3
1	49676	121.596659430683	5
1	50348	122.9764189471	5
1	50546	123.455688629557	4
1	50856	124.278007632262	4
1	51776	126.959972904254	4
1	52556	129.363012408881	4
1	53605	132.153972147926	4
1	53740	132.775144781114	9
1	53951	133.214248450931	5
1	54253	134.039373978888	5
1	55498	138.010560742595	5
1	55811	138.871692104045	16
1	57576	143.809963211372	3
1	60608	151.353632573109	3
1	63913	159.615307760423	8
1	63991	159.79518543456	4
1	64568	161.215569188236	7
1	65338	162.898987025793	5
1	65501	163.123570181538	5
1	66605	165.985790154609	5
1	67124	167.467768666124	3
1	67333	168.18592064736	4
1	69446	173.488110622147	3
1	71124	177.893131616737	4
1	72179	180.206906606996	4
1	72838	182.111056964154	3
1	74908	186.735157947415	4
1	75282	187.827228436161	4
1	76584	191.745240518286	4
1	76709	191.946383307574	4
1	78076	195.413998060751	4
1	79139	198.088051946533	3
1	80596	201.360871323922	4
1	81679	203.829979437982	4
1	81775	204.069059968339	4
1	81837	204.332239816857	4
1	81918	204.525222251371	4
1	82042	204.899369000058	4
1	82549	206.462076971597	17
1	82691	206.85020000961	13
1	84829	212.445746024602	4
1	87565	220.14373166684	6
1	88606	222.492335811225	3
1	89543	225.209648503744	9
1	89690	225.392307451286	5
1	90074	226.572089383575	4
1	90181	226.999890177676	4
1	90261	227.332212603618	4
1	91004	228.805109657418	16
1	93972	237.308171681327	4
1	95944	242.860127118539	22
1	96443	244.606193161659	7
1	96528	244.973202381849	3
1	98103	248.744063270991	5
1	98565	250.098964677029	10
1	99142	251.559743151312	13
1	102856	261.553014602905	4
1	103699	264.042867952808	3
1	103745	264.265353690719	3
1	105168	268.417551918742	14
1	105368	268.756666069643	4
1	107138	273.852612395443	5
1	108558	277.755024169696	8
1	108651	278.06109330587	4
1	108961	278.784853329995	4
1	109318	280.220657021204	3
1	109731	281.164957506746	4
1	111811	285.470858758849	3
1	111935	285.919536045551	5
1	113109	288.380481192199	5
1	113956	290.190078730746	4
1	114147	290.930295917011	3
1	114383	291.763910954292	4
1	114522	292.231988857866	3
1	115997	295.538653229473	8
1	117154	298.751038455372	16
1	117709	300.997846402498	11
1	117789	301.368224865703	5
1	120677	307.130372666049	8
1	122137	310.654225420786	4
1	122348	311.458830798028	6
1	122454	311.665594031227	4
1	122926	312.976948459673	5
1	123838	315.900510543773	7
1	124557	318.081469579977	4
1	124848	318.854721452855	4
1	125948	320.941726602616	3
1	126343	321.915959176274	9
1	126500	322.747740946036	9
1	127073	324.632399843632	3
1	127285	325.207241098919	4
1	129059	330.572227203819	3
1	130331	333.931308529003	5
1	130744	334.739503175455	4
1	131900	339.332496835009	30
1	132142	339.645911255125	4
1	133369	342.776398562453	5
1	133523	343.108401993587	4
1	133875	344.968686799561	9
1	134423	346.298976330421	5
1	135073	347.878035543749	13
1	138550	356.480897521337	5
1	140739	361.772483083353	4
1	141735	365.31612539284	3
1	142064	366.309082865686	5
1	142207	366.700226528727	14
1	142794	367.739205365101	4
1	143547	370.111159282651	5
1	147019	377.492018760176	3
1	153021	392.055562048296	3
1	153559	393.607255532479	8
1	153638	393.956085394935	4
1	153924	394.751288962595	4
1	155453	398.321068464323	4
1	155765	399.058475130988	4
1	157803	403.668862391584	4
1	159549	407.427583504093	8
1	159670	407.685831998164	5
1	161557	412.229196492185	4
1	164350	418.855531308186	4
1	165088	420.800555611176	12
1	167785	426.965956272488	4
1	167858	427.172996777728	7
1	167978	427.432756845465	3
1	169412	431.194133173982	6
1	169502	431.412582533141	4
1	172366	438.518684048732	5
1	173668	441.958064321699	5
1	174423	443.885049295702	4
1	174517	444.190774625222	6
1	174700	444.726284969542	8
1	174824	445.208993181638	9
1	176018	449.24504804815	4
1	178088	454.041830212057	4
1	182765	464.373957499118	3
1	183486	466.28866641271	4
1	184258	467.905840144417	10
1	184888	470.04362951904	4
1	185531	471.862608314837	9
1	189215	480.700397828167	5
1	189881	482.783946800961	5
1	190853	485.617384891243	4
1	191165	486.440237670903	4
1	192129	489.406620887039	3
1	198183	507.005400303985	10
1	198786	508.385530068915	5
1	199059	508.787380748682	5
1	201074	511.947181291916	55
1	202163	515.315408246412	7
1	204054	519.591399397914	5
1	204558	520.654054057804	9
1	204784	521.465790968883	3
1	205080	522.963427630519	4
1	205371	523.726182781333	8
1	205460	523.928411009247	5
1	207043	527.401273938874	5
1	207244	527.921564233874	10
1	209055	531.206940734192	3
1	209334	532.369713407924	6
1	209446	532.670384820271	3
1	210653	536.046170455399	5
1	210715	536.245083233751	3
1	210841	536.949654159621	6
1	210918	537.163261094031	4
1	213855	544.073332136241	14
1	213953	544.294073017099	5
1	215276	548.292460683556	5
1	216163	550.744604433935	4
1	216842	553.39734564193	23
1	217554	555.691129298134	4
1	218323	558.283716176289	4
1	219058	559.804139589481	7
1	221467	565.253715015171	4
1	222266	567.923555336516	7
1	223192	569.828457436266	4
1	225594	575.594677448153	8
1	226095	576.944658897971	4
1	226422	577.510229442137	10
1	228565	581.804152057779	5
1	228810	582.80640350008	5
1	229008	583.069425259413	4
1	231383	588.840957549846	4
1	233650	594.304287206285	8
1	235148	598.258426093698	5
1	236974	602.556185798511	5
1	238286	605.735801553769	3
1	238695	606.605074885183	4
1	241560	614.533035462139	5
1	242867	618.071753352668	5
1	244379	621.833131341309	4
1	244747	622.846865980102	3
1	245076	623.977940818796	15
1	247336	629.351272747769	3
1	249534	634.950694935348	4
1	250643	637.914554103059	4
1	252494	642.690371660249	6
1	252979	643.897920076755	5
1	254975	649.030256654132	20
1	257187	654.477889379374	3
1	258061	656.707903765937	5
1	259826	661.223773879147	27
1	260121	661.874894040946	5
1	260598	662.957198433354	4
1	262405	667.921373193763	7
1	263332	669.992183924874	3
1	263809	670.933835686376	5
1	266579	678.923641296928	4
1	268207	682.720284727742	4
1	268835	684.423743581664	10
1	268993	684.75525629367	5
1	269452	685.968768467339	4
1	269869	687.000848443491	3
1	270113	687.607964654008	4
1	270419	688.400787825142	3
1	272557	693.305784052814	9
1	272707	693.518214709854	4
1	274296	698.208395252341	5
1	275851	702.905773353673	4
1	276865	705.913442147551	9
1	277063	706.240507952878	4
1	278023	709.69357151914	4
1	278681	711.561387104021	4
1	279328	713.43339260556	3
1	279716	714.588067775243	4
1	280930	716.95842572826	3
1	281476	718.682188544725	3
1	281549	718.989586846511	3
1	282002	720.292804342445	5
1	283682	724.781572262364	3
1	283862	725.441905682912	12
1	284291	726.53432103519	9
1	287331	733.809230276966	9
1	288128	735.332999407469	5
1	289732	739.073454589038	3
1	290111	740.359707388064	4
1	290256	740.891417924734	4
1	292341	745.381672182836	4
1	297035	756.204281253418	4
1	299140	760.783535139805	3
1	299526	762.269397994727	15
1	299629	762.533758884844	4
1	299837	763.087656232253	3
1	299998	763.765455969387	10
1	301466	767.96023037436	4
1	303882	774.38498476932	4
1	304407	775.882692763118	15
1	304576	776.125238224032	5
1	304766	776.771567644052	4
1	304946	777.224289437312	4
1	305375	778.374468529615	5
1	305850	779.747989735983	4
1	306441	781.384505891898	9
1	306515	781.582944749461	4
1	306584	781.930115150333	3
1	307323	783.877067649283	5
1	307528	784.165687759497	4
1	310176	790.371816528298	16
1	310366	790.696450071103	4
1	313487	798.015347150492	3
1	313581	798.344772649638	4
1	315388	802.723196926496	3
1	315664	803.963542451932	4
1	315786	804.383373156205	4
1	317029	807.256387093784	3
1	317604	808.666341624152	5
1	320110	815.610153594201	4
1	322504	821.030096573395	3
1	324063	825.297610528778	4
1	325264	828.416815768032	5
1	326339	831.793258875301	5
1	326465	832.207882874715	4
1	327205	833.842669167432	4
1	327381	834.156753764003	3
1	327437	834.412441008925	3
1	327531	834.742492314148	6
1	327694	834.976126280237	3
1	328542	836.430856978528	4
1	328716	837.019587647875	4
1	329235	838.828289944348	3
1	330709	842.754606767676	6
1	331603	845.85483441469	8
1	332737	848.378088730881	5
1	333622	850.520138183097	4
1	335656	855.024077786688	3
1	335741	855.458270251032	5
1	335819	855.704965088339	5
1	337142	858.090823926289	4
1	337414	858.773360643053	5
1	338413	861.447098125514	4
1	343598	876.035090967735	5
1	344020	876.963142088955	5
1	344689	879.33316451897	7
1	344804	879.689965515872	3
1	346209	883.849622585442	16
1	346593	884.766812222141	9
1	347729	887.507561584013	4
1	347799	887.70940983877	4
1	348679	889.851226859751	4
1	349346	892.006935290273	3
1	349985	894.011980908304	3
1	350981	896.968191679841	4
1	351602	898.735635930858	5
1	354138	905.350902052584	3
1	356050	909.682107408164	7
1	356139	909.956546256547	8
1	356822	912.102007744843	3
1	357230	913.012144858375	3
1	360520	921.356858908065	5
1	360603	921.572092756827	5
1	362144	925.515980103304	4
1	363149	927.820664457416	10
1	363608	929.252762842425	3
1	364141	931.245059873959	3
1	365199	933.914926170125	3
1	365333	934.401941534579	6
1	365463	934.657543192186	4
1	365885	936.17953362261	7
1	366299	937.35853454406	4
1	366804	938.543442734171	3
1	367903	941.03167261319	9
1	368034	941.223878743592	5
1	369977	946.757054449862	4
1	372633	953.491154047043	11
1	376118	961.188824265933	9
1	376310	961.448422273978	5
1	377195	963.85613461717	3
1	378333	966.118879120567	4
1	378576	966.741048530739	5
1	379302	969.498743127172	11
1	381587	976.794503738767	6
1	381920	977.989601545706	4
1	382171	978.637802884535	9
1	382354	978.949077080055	5
1	385077	985.45938313648	3
1	386244	988.804532926521	3
1	387773	993.094805078646	4
1	389781	998.838681481815	5
1	392050	1004.207504686493	10
1	393312	1007.53027468857	17
1	394467	1010.162318862764	4
1	395560	1012.76912473144	4
1	395866	1013.606341750333	4
1	396511	1016.073053336415	3
1	399207	1023.440262837459	6
1	399401	1023.737113260516	3
1	399503	1024.035475667127	9
1	399774	1024.298238423678	5
1	400226	1025.179191627989	8
1	400320	1025.526651672902	3
1	401521	1028.576816726782	3
1	404468	1035.308133145329	4
1	405384	1037.341863271562	3
1	408390	1043.944427045381	8
1	408494	1044.27151898087	3
1	408765	1044.971680011127	4
1	409430	1046.132471786679	4
1	414293	1057.928017437285	10
1	414579	1058.811868216735	5
1	416023	1062.260488096714	3
1	416205	1062.87775918681	4
1	419300	1069.835852502048	5
1	422092	1077.944681163547	3
1	422621	1079.720145225565	3
1	423324	1081.322527354775	4
1	424450	1083.745486747829	3
1	424774	1084.655470174148	4
1	427170	1090.027801770033	3
1	427363	1090.857123979311	3
1	430667	1098.882640442435	7
1	430886	1099.864904311708	13
1	432899	1104.888747995868	4
1	434809	1110.938732345238	5
1	438271	1121.681496114837	7
1	438445	1122.139109238366	3
1	438867	1123.120694564562	5
1	439119	1123.692125901552	5
1	439940	1125.830547137999	10
1	440049	1126.06580606733	4
1	440178	1126.429156329147	3
1	441148	1128.33897727506	4
1	441596	1129.407541062814	9
1	441683	1129.632032650176	5
1	441930	1130.348443409904	3
1	445235	1138.489554651256	8
1	445585	1139.198398318397	4
1	445706	1139.653575253895	5
1	446958	1143.07177149963	4
1	448797	1147.678611738287	10
1	449097	1148.563020125948	4
1	453373	1159.679067897633	4
1	455026	1164.653724580519	5
1	455527	1166.146551740662	3
1	455806	1167.256308323148	7
1	455948	1167.592530752546	3
1	456972	1169.325093969737	15
1	457295	1169.595384368918	5
1	457882	1171.278770825674	3
1	459131	1174.204644086588	5
1	459290	1174.459617451636	5
1	461041	1178.599520667944	4
1	461354	1179.295125329187	5
1	462847	1182.49530031396	4
1	463285	1183.49982549299	3
1	465226	1187.885172951781	3
1	466238	1190.538079322043	4
1	468726	1197.132255618518	4
1	469100	1198.169031359719	8
1	469211	1198.507835675003	4
1	469319	1198.955038464965	3
1	469642	1200.358585991216	4
1	470486	1202.596587817672	3
1	474777	1211.657663245826	4
1	477611	1218.232166172764	3
1	478034	1219.849698845414	4
1	478577	1221.21117396041	24
1	479271	1222.499086309893	3
1	479716	1224.188640965021	4
1	480198	1225.48526007235	3
1	480533	1226.50942204765	8
1	482092	1230.559986805179	3
1	483010	1233.382206441573	4
1	483185	1233.829543330514	7
1	484511	1236.685769322596	4
1	485633	1239.613468147686	3
1	485948	1240.881708017422	14
1	486624	1243.555956132348	4
1	488304	1247.226400875582	5
1	490468	1252.468310615355	7
1	490716	1252.877073468435	8
1	492720	1257.907111076647	4
1	492906	1258.592483387567	3
1	493359	1260.2143235071	3
1	493650	1261.466183198771	3
1	493795	1262.194643654728	4
1	494018	1262.869003935593	12
1	494151	1263.187961954308	5
1	494391	1263.769885155521	4
1	495561	1267.36457265198	5
1	495983	1268.478586439731	5
1	496174	1269.215068588184	5
1	497994	1273.781036630176	8
1	498122	1274.059092487244	4
1	499193	1276.942914047884	3
1	499665	1278.514591237501	3
1	501108	1282.022969396348	4
1	501586	1283.101903209616	4
1	502924	1287.054596734201	10
1	503148	1287.741665419982	4
1	503243	1288.031602358808	4
1	503779	1289.477948108308	15
1	504198	1290.659676144744	12
1	505812	1295.506161536773	11
1	505869	1295.760883067565	3
1	507256	1299.174113123209	14
1	507513	1299.462229245965	4
1	507822	1300.418851922548	3
1	510222	1306.156081096155	5
1	511767	1311.104651497837	4
1	511919	1311.486634312141	8
1	511983	1311.70882773343	3
1	513690	1315.888182491251	3
1	515158	1319.458018069202	5
1	516484	1323.074527293904	4
1	516840	1324.03832078017	4
1	517685	1326.553780697593	4
1	519718	1331.857641699069	5
1	521524	1336.150880239501	5
1	521733	1336.656846832764	4
1	522366	1338.358692231634	8
1	522695	1339.187773831849	3
1	523749	1342.601074305559	11
1	523851	1342.789520043015	4
1	524744	1345.225143199562	4
1	527214	1351.290074476833	17
1	528814	1355.094908307526	3
1	529135	1355.748992224423	3
1	531637	1361.425871054461	5
1	532527	1362.931819498897	8
1	532608	1363.147028289111	4
1	534413	1366.837865588067	4
1	534772	1367.996616110901	5
1	536602	1372.584466928483	4
1	537439	1374.363273996281	4
1	538493	1377.095674513471	4
1	538619	1377.669403921045	5
1	539540	1379.913649569269	4
1	539679	1380.453447992881	8
1	541275	1385.630553278788	4
1	541634	1387.101885600925	3
1	542111	1388.380427093668	4
1	542446	1389.400150650846	9
1	543565	1392.417928520715	5
1	545265	1397.442511861567	3
1	547907	1404.739408029393	8
1	547956	1404.930920671326	3
1	548119	1405.46711173872	4
1	548751	1407.463584339433	8
1	549578	1410.031470684346	4
1	550790	1412.790035622115	5
1	553072	1418.121844598824	4
1	554790	1421.997859396787	3
1	556100	1425.548301027425	4
1	556437	1426.297177721671	3
1	556634	1427.01405675394	4
1	557715	1429.793693816951	10
1	557961	1430.585971522505	7
1	558211	1431.353189537334	12
1	559261	1434.037837599673	8
1	560138	1436.182705978215	5
1	560600	1437.409058808942	4
1	560773	1437.918961763985	4
1	560852	1438.162931412991	7
1	561021	1438.418949651939	5
1	564391	1446.385112216836	8
1	564498	1446.581516472449	3
1	564582	1447.03276050158	3
1	564754	1447.695153465949	3
1	564822	1447.96668467656	3
1	565587	1450.088356685054	4
1	565847	1450.826494427191	4
1	567739	1456.456975028492	4
1	567885	1456.800807597064	4
1	568035	1457.012216261905	5
1	569750	1461.679160576151	10
1	571360	1466.465287052562	5
1	571661	1467.038562031175	4
1	573699	1472.612516143523	4
1	573971	1473.115537918533	3
1	574466	1474.523407193276	5
1	576864	1480.536314324609	3
1	578161	1483.468620976128	4
1	579137	1485.678358261409	4
1	580508	1489.414185108785	4
1	582088	1492.748664413654	11
1	585572	1501.336443844945	3
1	589683	1509.739371295127	8
2	262	0.688602544543	0.582654802802
2	383	0.843309667296	0.078981124886
2	460	0.958968649978	0.060897402117
2	540	1.098584803793	0.085628951349
2	624	1.338418172785	0.057183494871
2	788	1.77130536729	0.054343392459
2	995	2.3021758949	0.089209280212
2	1169	2.673838446906	0.074278700278
2	1283	2.819268218326	0.067696094655
2	1873	4.024522365306	1.109601832456
2	1988	4.260040766806	0.071144670189
2	2319	5.004687279591	0.053564449796
2	2433	5.275953932704	0.065167962341
2	2572	5.443867383942	0.081022741859
2	2744	5.97623649449	0.372140314158
2	2777	6.041438455301	0.061121728015
2	2930	6.307364911918	0.04170085396
2	3510	7.610341983484	0.047581978425
2	3663	7.979424168063	0.057128630105
2	4012	8.765828712784	0.056763962239
2	4105	9.046837012667	0.064158324371
2	4463	10.057965166834	0.606723241462
2	4625	10.236527133263	0.090144113485
2	4786	10.885271635921	0.090468565518
2	4879	11.089268020255	0.061956230539
2	4974	11.249870328521	0.084134016324
2	5064	11.427348279232	0.064094030212
2	5508	12.316846289428	0.083231468363
2	5655	12.509665839823	0.074495854662
2	5858	12.91243093794	0.080403924723
2	5985	13.19837818213	0.051849497691
2	6290	13.69589024087	0.072367240538
2	6392	13.842181692444	0.047141031996
2	6592	14.319168622292	0.062707442754
2	6838	15.189630512715	0.568465386516
2	6961	15.573067852012	0.06934775975
2	7114	15.973689758167	0.064862453403
2	7297	16.448728886903	0.059061267075
2	7490	17.141492859097	0.590281795319
2	7585	17.36444017169	0.129984845608
2	8055	18.322068298702	0.048949069907
2	8158	18.589060925678	0.063880567519
2	8257	18.696795808646	0.05465255062
2	8367	18.849148764432	0.068552958722
2	8506	19.083285125283	0.070584037941
2	8651	19.584083219816	0.080298599056
2	8889	20.10716706443	0.079396441677
2	9234	20.855512371881	0.577539978491
2	9532	21.711269528158	0.058490324129
2	9613	21.913441641925	0.065568701155
2	9754	22.289680645047	0.120667571771
2	9828	22.407923376836	0.052226355447
2	9933	22.521665288718	0.085181746237
2	10154	23.196430305997	0.088268352865
2	10246	23.351065744234	0.09219226125
2	10559	23.962281798866	0.561561583365
2	11025	24.934801675389	0.506820758035
2	11102	25.076290732212	0.089915159136
2	11233	25.190388392972	0.041907355353
2	11434	25.54530496593	0.038845449933
2	11501	25.647730745303	0.062576368173
2	11853	26.59145313422	0.072404367755
2	11943	26.936848717312	0.063927097662
2	12027	26.994122017487	0.047254859805
2	12119	27.088022325684	0.041497695555
2	12368	27.71745980095	0.584640790911
2	12578	28.206785297049	0.040740596
2	12648	28.392384251593	0.070114843115
2	13058	29.697352420746	1.141070115924
2	13203	30.104086017766	0.103037827594
2	13533	31.324558629709	0.599503293986
2	13720	31.646502477939	0.093712456091
2	13904	31.97990014162	0.045061955473
2	13981	32.10703980205	0.087275741343
2	14023	32.184114719612	0.07241700985
2	14409	33.108983974489	0.055400280656
2	14545	33.218572791657	0.099028241041
2	14615	33.385127689109	0.059700052781
2	15189	35.081356889212	1.10633074597
2	15299	35.201139223573	0.08316518677
2	15398	35.288726386336	0.070848857206
2	15470	35.570199436167	0.05821015305
2	15947	36.494209683804	0.076136389746
2	16068	36.88838548789	0.089533328564
2	16291	37.565916792937	0.082096981259
2	16603	38.476805557521	0.688720431158
2	16818	38.916453889704	0.070776077287
2	16875	39.024861203182	0.047032382155
2	16996	39.403076758986	0.066797276081
2	17089	39.6548197209	0.066262360104
2	17149	39.766799451101	0.045927686283
2	17234	39.96735865453	0.066290914964
2	17273	40.070630313524	0.043601115893
2	17410	40.331986795999	0.056942762602
2	17559	40.547879899641	0.089231055138
2	17657	40.759515231287	0.05998046848
2	17696	40.828582488502	0.064928667281
2	17748	40.934426939376	0.059219668185
2	18351	42.784561517484	0.071721618156
2	18418	42.92500064437	0.074397225289
2	18485	43.037522372419	0.083525281275
2	18575	43.257792564651	0.061090471565
2	18725	43.547921907539	0.053225451888
2	18867	43.733841483796	0.100977598557
2	19208	44.751843624262	0.563098254776
2	19347	45.036233975169	0.075136303958
2	19581	45.689144437235	0.554516938031
2	19703	45.832900825452	0.073434674294
2	19948	46.569385625306	0.361611961967
2	20390	47.54153046529	0.219249841982
2	20644	48.335781301197	0.540782159237
2	20760	48.509276560847	0.072620002265
2	20858	48.686896683598	0.072638914537
2	21141	49.227968881754	0.051088262732
2	21591	50.783876223774	1.074579077451
2	22134	51.945560723582	1.102433997014
2	22315	52.141078046322	0.085928422117
2	22384	52.283481512481	0.043968801908
2	22682	52.955368069892	0.088384547237
2	22764	53.076142505313	0.072378225466
2	22847	53.279552813153	0.275788533306
2	22892	53.375400929648	0.078331680564
2	23063	53.760169242866	0.076946124758
2	23161	53.859597391724	0.077683016285
2	23268	54.00141860193	0.083797439864
2	23402	54.181448010479	0.084992025799
2	23725	55.065660423485	0.077312189829
2	24313	56.923901464415	0.580370840951
2	24709	58.082440042979	0.062445743198
2	24792	58.239742566372	0.071496565802
2	24997	59.010800653671	0.083773469295
2	25442	60.265014773406	0.479760392037
2	25488	60.351939377641	0.064543840967
2	25700	60.931206143987	0.062398549642
2	25827	61.181249152662	0.077725732285
2	25918	61.404607099135	0.067257112215
2	26228	62.062232391872	0.042652114732
2	26398	62.216885363447	0.122508675378
2	26618	62.82757827362	0.057077083963
2	26761	63.128655258118	0.057942507382
2	27533	65.209599491482	0.079942352546
2	27769	65.901772811171	0.074893816786
2	27865	66.079099811467	0.086728930384
2	27946	66.211371564655	0.040366136638
2	28059	66.435233331263	0.089196624931
2	28480	67.49803180132	0.051076564216
2	28557	67.717596141936	0.038910166059
2	28593	67.776538388044	0.057148888668
2	28684	68.075030018915	0.045665347035
2	29100	69.288508057301	0.909964909306
2	29159	69.357078736156	0.061591004374
2	29480	70.173799218213	0.566687517039
2	29799	71.290214193841	1.07057048733
2	29863	71.400100834949	0.075698744992
2	29945	71.542586081019	0.092590166903
2	30022	71.724337145192	0.072829362879
2	30405	72.693739796368	0.082356104788
2	30496	72.893386077208	0.06379831525
2	30753	73.777516703214	0.084210823655
2	30956	74.354608485321	0.564548242006
2	31030	74.528876322595	0.095597781775
2	31186	74.851934528315	0.075555969887
2	31516	75.636935813665	0.077681179352
2	31694	75.817914778317	0.058090426506
2	31819	76.238579726427	0.065412515687
2	31973	76.645148466199	0.06931784579
2	32058	76.992218319365	0.416387698956
2	32730	79.052156567044	1.603276467316
2	32821	79.3622597004	0.071136850665
2	32920	79.480515113217	0.073990971171
2	33237	80.117639468404	0.079199485534
2	33589	81.180284856602	0.101509598018
2	33780	81.568363531775	0.149367710255
2	33865	81.701906234774	0.081965855805
2	33936	81.802573618044	0.056759269763
2	34010	81.928052408545	0.068317707487
2	34100	82.034173117637	0.084802657312
2	34335	82.824953987025	0.288122680379
2	34605	83.4248695538	0.065378054158
2	34672	83.612876619766	0.071804758
2	34874	84.24735529535	0.076994794678
2	35190	85.370101377432	1.039874251142
2	35591	86.197968050516	0.583377012234
2	35750	86.616073260368	0.066888468552
2	35997	87.075525116422	0.065048931391
2	36128	87.377255797743	0.083385703024
2	36330	87.950086077509	0.082898612581
2	36461	88.202594878484	0.206080823066
2	36648	88.484566705113	0.096692980509
2	36980	89.75523337497	0.689999498317
2	37238	90.566652134681	0.594081894384
2	37325	90.700947138275	0.069326690684
2	37433	90.874887475647	0.059814598817
2	37607	91.148321483998	0.054581912429
2	37708	91.334533688165	0.063831805506
2	37928	91.89679522974	0.074055555962
2	38006	92.070939864187	0.08211780336
2	38620	94.144065339795	1.124159735259
2	38738	94.590932094968	0.040380713525
2	38781	94.696113745567	0.097604093745
2	38978	95.157525052535	0.080009241291
2	39283	96.00631057728	0.554175169116
2	39565	96.727880458656	0.109944291977
2	39787	97.471969050053	0.042138818571
2	39902	97.638594677008	0.070740861168
2	40077	98.09456476674	0.064293399081
2	40252	98.762773940883	0.06617309967
2	40338	98.916410110621	0.066030225262
2	40450	99.1230264388	0.042832677274
2	40952	100.906351929598	0.582111487206
2	41027	101.067778308462	0.060035495204
2	41246	101.426321903195	0.070397826987
2	41324	101.553379643923	0.04722262548
2	41464	101.695270313892	0.063272227234
2	41669	101.945988500857	0.057362011917
2	42052	102.616895812743	0.568154321987
2	42458	103.649292005814	0.320397185653
2	42699	104.239086293968	0.094527115051
2	42787	104.346652163835	0.058051932343
2	42905	104.536540920172	0.071731389339
2	42987	104.84375413358	0.263968592779
2	43418	105.490671644463	0.072705738115
2	43511	105.576565308938	0.058285780914
2	43732	106.367963188561	0.084221202075
2	44157	107.816526718353	0.616289782044
2	44288	107.970499043949	0.143381695699
2	44428	108.251026611124	0.091193851265
2	44532	108.36108235091	0.073479584368
2	44877	109.381968351132	0.305840443218
2	45012	109.769606145102	0.085955578636
2	45085	109.848973760515	0.037157408579
2	45206	109.950359046711	0.076251972555
2	45280	110.049179219029	0.056598057227
2	45486	110.529272383622	0.066824685239
2	45853	111.728855802122	0.063559247271
2	46227	112.614313370004	0.066262629194
2	46358	112.869774340401	0.0781339829
2	46483	113.193344917261	0.058855145765
2	46599	113.355723687952	0.13176665841
2	46711	113.688256031684	0.09124691867
2	47035	114.496408014125	0.7736373049
2	47355	115.516965976529	0.285105527667
2	47664	116.594740721849	0.591679044333
2	48024	117.466477654927	0.040387800559
2	48265	118.108522557938	0.082956592036
2	48409	118.277857715234	0.09859996159
2	48564	118.652146673057	0.069758923272
2	48759	119.175945287639	0.057410679885
2	48822	119.417685972369	0.040614841989
2	48981	119.850246602639	0.093794700168
2	49102	120.095310028807	0.065473252258
2	49324	120.554505414373	0.08102778823
2	49437	120.751261454764	0.068683551116
2	49546	121.057983959128	0.079755155116
2	49872	121.883793714405	0.08666107717
2	50121	122.609215101059	0.402053826189
2	50221	122.709708579271	0.098322939339
2	50485	123.122781453027	0.083910789395
2	50707	123.817681200195	0.291143204419
2	50993	124.505191005695	0.059271037072
2	51205	125.354713565942	0.064871705207
2	51325	125.833961732415	0.075811287829
2	51575	126.424021127783	0.5729373872
2	51926	127.490524960371	0.609701799633
2	52103	128.020092637119	0.099214198311
2	52281	128.434229772049	0.049149153732
2	52384	128.695223476285	0.075646451909
2	52689	129.835986846173	0.569449535632
2	52918	130.457805656791	0.596431348134
2	52992	130.539975460714	0.078238545831
2	53110	130.652450896385	0.100988676154
2	53491	131.667221600269	0.114481343909
2	54131	133.732822577983	1.190157011763
2	54367	134.248729394587	0.067735223299
2	54504	134.683519728801	0.092902760962
2	54648	135.298770991688	0.046149099811
2	54974	136.42572004946	0.79465525478
2	55118	136.905438733321	0.080617120237
2	55189	137.125175701741	0.064257410818
2	55355	137.757918823249	0.084499605411
2	55536	138.095584113038	0.313450969864
2	55636	138.233565314374	0.071283920386
2	55986	139.444797642504	0.57981970243
2	56266	140.066551045925	0.088633445904
2	56405	140.560610859438	0.07488734811
2	56578	140.818526041611	0.074403427012
2	56752	141.294188686494	0.069922625173
2	56818	141.378900927998	0.082942556627
2	56963	141.688770873373	0.06457101048
2	57259	142.610486991968	0.083208149439
2	57734	144.445097066507	1.773987805929
2	57801	144.571957786656	0.087697517306
2	57881	144.646590191741	0.043483600183
2	58020	145.010427096798	0.093391300012
2	58245	145.42723764445	0.039934713578
2	58350	145.796930508838	0.063296219576
2	58543	146.275206712309	0.070572407493
2	58617	146.422039703116	0.079201581919
2	58703	146.603888471531	0.080210457163
2	58938	147.152355507786	0.170616789665
2	59008	147.282247060949	0.074861903306
2	59087	147.496682083932	0.084490130245
2	59233	148.02187640361	0.052180604501
2	59397	148.681950858145	0.578407546463
2	59497	148.883426470639	0.07613040968
2	59594	149.105927552847	0.096549829611
2	59634	149.171569781532	0.040405959641
2	59901	149.572552351785	0.085561952484
2	60069	149.833881330183	0.076861000724
2	60148	149.979735769487	0.062960341608
2	60319	150.433215369308	0.326752708953
2	60410	150.582397970992	0.089639436398
2	60514	150.929124816134	0.066283639323
2	60860	151.999037263314	0.081276411067
2	61285	153.660292288431	1.362057760968
2	61343	153.775917912817	0.091605091658
2	61508	154.072183346635	0.075512895656
2	61666	154.563575823714	0.062493800076
2	61926	154.949135721284	0.096568347198
2	62171	155.597896835117	0.061919911722
2	62459	156.738780377891	1.066489567159
2	62602	157.003085301664	0.071111271819
2	62723	157.159061302312	0.102617563859
2	62792	157.318804444273	0.099072683681
2	62968	157.627114695134	0.06061023691
2	63240	158.09488583969	0.081802784701
2	63437	158.593671767707	0.086125974534
2	63512	158.769695147317	0.070235164219
2	63669	159.069920503165	0.083709300938
2	63736	159.26066873005	0.078184437202
2	64154	160.19457596337	0.623017231745
2	64213	160.296992672529	0.078728229876
2	64367	160.909016704045	0.090355906799
2	64464	161.018225682528	0.09871281966
2	64798	161.527665569769	0.062252549479
2	65030	162.346781308491	0.181475937099
2	65115	162.491790058433	0.077125739932
2	65435	163.017384219462	0.141548451022
2	65576	163.198851412968	0.104220492886
2	65698	163.498724609866	0.186584124162
2	66122	165.001629613685	1.344087995717
2	66214	165.269881305607	0.080533407877
2	66300	165.456840452978	0.059713388617
2	66743	166.237697679864	0.083156691402
2	66812	166.334578606867	0.067091918576
2	66993	166.865762064582	0.079490575006
2	67173	167.54750736262	0.537310918916
2	67674	168.955051844366	0.155316994324
2	67705	169.021003195293	0.035864721386
2	67818	169.376361049469	0.061988762361
2	68158	170.167468254897	0.081395205569
2	68344	170.520275383063	0.063453664954
2	68567	171.202944831309	0.082340146108
2	68744	171.607859963427	0.064150902234
2	68913	172.222716501271	0.559588750183
2	69235	172.982667787595	0.05877853244
2	69322	173.090979522405	0.080355531046
2	69694	174.510961473682	1.358770122013
2	69801	174.695016987392	0.06113783725
2	69974	175.093617235465	0.056410198388
2	70281	175.608111794389	0.086537718881
2	70353	175.707166501172	0.06277621743
2	70449	175.831578138967	0.064433915464
2	70626	176.207071535561	0.330191164161
2	70913	177.132212330682	0.554017426754
2	71010	177.278300469644	0.105624413982
2	71421	178.479895853893	0.78606240673
2	71538	178.858287496975	0.086276707912
2	71703	179.184507964546	0.077985783325
2	71793	179.317119687508	0.074127319258
2	71935	179.521580941582	0.094578765132
2	71987	179.602669006202	0.069108260415
2	72359	180.799152125805	0.604258516809
2	72417	180.955236048548	0.059140792994
2	72608	181.525172679635	0.057612546799
2	72718	181.722561659876	0.080695937715
2	73006	182.246800155975	0.061391860101
2	73583	184.15413459881	0.081283881863
2	73736	184.321178238961	0.085424470363
2	73805	184.386227456545	0.059142860413
2	73935	184.587605952589	0.094507999876
2	74133	185.156931632858	0.543192831481
2	74210	185.281488759746	0.067196591096
2	74378	185.654915583391	0.065618522213
2	74463	185.883371299189	0.07298807056
2	74540	185.973547290406	0.076605863268
2	74645	186.089874880785	0.090615422637
2	74839	186.549148695084	0.085921252304
2	75039	187.136872221662	0.054227551295
2	75558	188.915962327354	1.570144685217
2	75670	189.221805722953	0.075698300519
2	75853	189.577926768266	0.071972120424
2	75992	189.906839106723	0.120508703374
2	76225	190.802753779897	0.578412675714
2	76295	191.01814164466	0.090440101065
2	76361	191.105554874954	0.079575167841
2	76682	191.923949763478	0.549740489558
2	76785	192.150410974145	0.040257389971
2	76971	192.536480346716	0.173609408798
2	77113	192.779544613185	0.083165069468
2	77365	193.306707786142	0.067503409738
2	77561	193.90679140626	0.074372981973
2	77715	194.156431660577	0.087603107148
2	78283	196.191506093674	0.740228257935
2	78452	196.478740328596	0.201038879426
2	78517	196.587961140851	0.071815042241
2	78726	197.295007417552	0.050220971101
2	78801	197.40498786553	0.049260044623
2	78931	197.676330812774	0.041224795733
2	79104	197.888983107987	0.067787627788
2	79195	198.17504569165	0.074259491374
2	79233	198.337327866912	0.037457164078
2	79487	198.791795457759	0.049939400879
2	79563	198.868176521329	0.063856931087
2	79704	199.136466108502	0.076157731063
2	79871	199.326926008281	0.112648028409
2	79938	199.505326908004	0.074447497329
2	80141	200.081955760875	0.073568235227
2	80237	200.388209086096	0.072149311907
2	80342	200.607348851098	0.066841374183
2	80686	201.579294149338	0.572509737091
2	80825	201.951504548179	0.058023961205
2	80944	202.222411682429	0.068907235926
2	81047	202.319797597851	0.064331927668
2	81118	202.465110217414	0.074981482254
2	81484	203.194906156099	0.541517686626
2	81975	204.604267580619	1.111723770722
2	82334	205.834780150619	1.035221582156
2	82418	205.971947786257	0.075376190962
2	82897	207.242470681436	0.614765762643
2	82958	207.370926294954	0.079805657559
2	83215	208.33702648945	0.572062331562
2	83264	208.508470713166	0.036654837969
2	83693	209.401868630379	0.062836329394
2	83769	209.611867781156	0.073236860958
2	84279	211.307218114277	0.556502113329
2	84429	211.408807864422	0.066683030243
2	84581	211.858606215759	0.044439166151
2	84772	212.220133851576	0.072506414272
2	85035	212.990623442832	0.612958708736
2	85305	214.019621884504	0.558907280193
2	85367	214.174996597557	0.081677983381
2	85411	214.285192921801	0.079137282881
2	85815	215.31984344132	1.018718960016
2	86118	216.501873761175	0.565741864342
2	86442	217.642406466573	0.995903214903
2	86826	218.598864264047	0.074325855512
2	86962	218.810797263546	0.091141962323
2	87060	219.105505112514	0.051512058627
2	87198	219.348184537045	0.046475254264
2	87267	219.438040684551	0.061292586761
2	87381	219.748299948157	0.067833886503
2	87674	220.494931518471	0.048764721986
2	87767	220.607642194406	0.072611836425
2	87856	220.798559304226	0.064406040172
2	88175	221.491154709734	0.563869110041
2	88267	221.717059408911	0.088167864687
2	88382	221.930069274062	0.052625034605
2	88466	222.070775696094	0.091213832028
2	88538	222.241830759199	0.041279035565
2	88683	222.687849497405	0.0596373966
2	88758	222.846760444177	0.078571118434
2	89254	224.412603328199	0.408473645031
2	89686	225.389222957696	0.057553437912
2	89823	225.524085035616	0.088722030043
2	90510	227.728201019175	0.04395552297
2	90796	228.248825472279	0.104068194688
2	91076	228.983558538884	0.623401679691
2	91294	229.495604657806	0.391308466652
2	91482	229.974458957613	0.071376329075
2	91563	230.132965599418	0.06983917408
2	91835	231.021371170723	0.081682955318
2	92270	232.146113300975	0.108412072386
2	92408	232.318331054555	0.089846007569
2	92761	233.632172443532	0.895729947512
2	92916	234.11069949643	0.039233966658
2	92979	234.168748112069	0.05658494634
2	93291	235.101155342363	0.584089225361
2	93434	235.478749375216	0.0815866416
2	93537	235.713399548006	0.084379302442
2	93750	236.335470661781	0.056082363406
2	94170	237.855287518585	1.091834286267
2	94609	239.027805494639	1.083400825869
2	94692	239.189715769463	0.075812101887
2	95009	240.106935226979	0.572438103236
2	95163	240.527722776018	0.063671120892
2	95281	240.644740876842	0.061501869107
2	95531	241.46222932226	0.07092431435
2	95605	241.59805571884	0.070709798966
2	96306	244.190145426608	1.609203615827
2	96653	245.444873099866	0.577677813651
2	96986	246.552777878806	0.580053238359
2	97234	246.922476967432	0.076042539933
2	97488	247.635512312368	0.332091076715
2	97679	247.981112459705	0.083989062095
2	97965	248.451406637394	0.068453429646
2	98036	248.575720030157	0.083688598958
2	98141	248.77730533646	0.285273905261
2	98528	249.963604598978	1.076315336431
2	98633	250.260179426982	1.372890164435
2	98738	250.548997912921	0.05560318823
2	98948	250.867077316481	0.108181598764
2	99899	253.143028014388	0.577059256966
2	100120	253.786916437301	0.568388651965
2	100429	254.563104513614	0.552842893274
2	101012	256.665365578215	1.828821351401
2	101105	256.762679292172	0.067728548607
2	101504	257.674577400606	0.094949600538
2	101599	257.985188574813	0.073376811918
2	101691	258.229762371031	0.07440296676
2	101751	258.314216884772	0.073476026816
2	101862	258.465742254203	0.055378541959
2	101966	258.607704017339	0.05320696972
2	102095	258.897580948923	0.059403183869
2	102377	260.083569374507	0.627918663546
2	102710	260.96991796742	0.073248054307
2	103169	262.300890894475	1.092603893961
2	103435	263.177084152572	0.579727133694
2	103609	263.7718327144	0.119740688234
2	104101	265.522214205441	1.576810878222
2	104402	266.321501786479	0.07131077168
2	104749	267.263163594317	0.091087879339
2	104983	267.618657203564	0.082842583585
2	105608	269.392275475197	1.120645493445
2	106032	270.514051851703	0.069448308465
2	106488	271.707363966977	0.071128600418
2	106581	271.883990770844	0.05140351436
2	106814	272.751323549117	0.120547411838
2	106960	273.247033591698	0.08419925886
2	107105	273.7206211328	0.115993599511
2	107164	273.880788224759	0.27616069147
2	107259	274.041666240329	0.08805390417
2	107462	274.533421512392	0.074465994032
2	107531	274.72746032504	0.099724853154
2	108200	276.636527501463	0.617010661915
2	108430	277.399749885829	0.137189783227
2	108702	278.170972117256	0.601641517383
2	108802	278.345730509911	0.090719498194
2	109572	280.77489360524	2.143741139518
2	109658	280.932896331887	0.122316536694
2	109827	281.328911665981	0.097784817234
2	109996	281.560917456746	0.053991828536
2	110147	281.72995312815	0.086638345827
2	110330	282.088039650091	0.050918739486
2	110585	282.515294586409	0.05610200795
2	110742	282.879924466377	0.08452903809
2	110988	283.484519763133	0.327552820571
2	111332	284.092511727279	0.079841379878
2	111425	284.373530217255	0.085702581094
2	111520	284.631259499035	0.107693833388
2	111605	284.83579465463	0.054846821248
2	111747	285.202472948645	0.178752009534
2	112085	286.041794233811	0.613609759328
2	112283	286.533986019251	0.049207788489
2	112395	286.644934090311	0.059425800114
2	112563	287.298900568345	0.083563861775
2	112664	287.46139011564	0.077370342787
2	112921	287.963604900881	0.073422656199
2	113035	288.064463917838	0.081549604039
2	113270	288.566348214884	0.072568041852
2	113441	288.832230680187	0.124597263046
2	113685	289.711907943637	0.601948604236
2	113887	289.973781424603	0.080613404183
2	114291	291.348461261476	1.184213486715
2	114587	292.319559767528	0.58479101992
2	114673	292.454155322726	0.07243330072
2	114892	292.933529638264	0.071892483496
2	114976	293.121472473397	0.078365057681
2	115106	293.414786125999	0.078636079066
2	115308	293.820363889991	0.083164743114
2	115476	294.082592547057	0.195505382534
2	115544	294.183695375288	0.093048860226
2	115587	294.236442434483	0.049868483668
2	116065	295.721926434785	1.133382677645
2	116223	296.019054590067	0.061526070733
2	116908	298.09350077848	0.657041842829
2	117019	298.371588486924	0.06652257211
2	117391	299.593256156221	1.0889755021
2	117479	299.867146519028	0.07300040565
2	118211	301.898878431708	1.671083333789
2	118251	301.959547412872	0.043009036366
2	118347	302.133628855931	0.047173181202
2	118676	302.898512536003	0.093615194265
2	118792	303.057729755626	0.086067204825
2	118883	303.197534549193	0.067291940403
2	119252	303.766110804403	0.09106449933
2	119467	304.112806564452	0.0614978083
2	119515	304.186579809121	0.073693966816
2	119683	304.620732318318	0.073165099949
2	119742	304.711235967611	0.07599295292
2	119807	304.794583041042	0.078824787535
2	119886	304.946042334504	0.060178615591
2	119980	305.061752447657	0.08782227113
2	120069	305.246904394734	0.071371180917
2	120399	306.046335519083	0.595805303136
2	120522	306.455422656413	0.115819705243
2	120719	307.195273817178	0.299676728627
2	121039	308.129749010847	0.039318827221
2	121437	309.085631093413	0.598986775449
2	121543	309.274754519181	0.041852913293
2	121619	309.353921537182	0.06997981371
2	121696	309.466675772005	0.089898270166
2	121928	310.0924521122	0.128677549982
2	121971	310.140641611996	0.044231550188
2	122596	311.967839562935	0.602856882312
2	122667	312.071462925008	0.075333842227
2	122854	312.68964110614	0.071459921671
2	123209	313.336867830543	0.045496756339
2	123426	314.180453695973	0.061808720759
2	124026	316.432057010859	2.109331875635
2	124131	316.627149557074	0.096886628294
2	124218	316.825955212217	0.074515575885
2	124693	318.456951702085	1.076083087649
2	125011	319.132717306994	0.086446421391
2	125135	319.251725265251	0.075435884514
2	125353	319.534413686902	0.071623900976
2	125456	319.735155322169	0.079023054567
2	125553	319.875778501735	0.076422362574
2	125672	320.23537316014	0.071377825154
2	125788	320.53361897844	0.074929869863
2	126015	321.089438513841	0.096498636742
2	126121	321.310146211746	0.084631436338
2	126188	321.41652850715	0.080727628874
2	126707	323.505940488744	1.602270225185
2	126895	324.210281277952	0.062240577888
2	126957	324.308254186371	0.074162052666
2	127047	324.436476985281	0.074661940077
2	127104	324.678759368855	0.316944323651
2	127425	325.377555422068	0.051416235631
2	127501	325.604468463077	0.056936714887
2	127751	326.6427709976	0.544294849971
2	127972	327.261736480965	0.597233668903
2	128220	328.008066066815	0.069419730252
2	128369	328.312468834414	0.065292590283
2	128479	328.627761971462	0.061723727336
2	128580	328.888733001343	0.065774608335
2	128832	329.427621656465	0.09287816138
2	129351	331.543642755757	2.078525126992
2	129418	331.657101725315	0.088021943151
2	129485	331.786211876114	0.079482251648
2	129548	331.88783367209	0.053219486727
2	129598	331.975775310688	0.070246245653
2	129848	332.521354448912	0.060134402977
2	130097	333.241430218179	0.140773361008
2	130197	333.527520495914	0.065791100971
2	130253	333.655248520913	0.044141967553
2	130576	334.471303271155	0.589780757653
2	130718	334.601048938229	0.089531387988
2	130782	334.776364593897	0.264847043656
2	130949	335.361304633853	0.082768640172
2	131949	339.457023955799	2.846316729723
2	132132	339.635419910763	0.086670946929
2	132402	340.339073561331	0.074500897085
2	132766	341.387189564117	0.563206423312
2	132967	341.754525664387	0.086704811837
2	133146	342.080861481659	0.084974694717
2	133288	342.590866010158	0.052901596795
2	133739	343.89930719789	1.048056715874
2	134305	345.992110832066	1.614810930166
2	134670	346.87093869558	0.671765733579
2	134872	347.359523352266	0.05502916327
2	134943	347.416810401849	0.039693907254
2	135402	348.620520125651	1.157665921394
2	135469	348.777295690207	0.065392729653
2	135655	349.38239321525	0.567434098433
2	135920	349.929053986508	0.048469465129
2	136141	350.687856207888	0.065669313932
2	136777	352.646214198039	0.793462208215
2	136838	352.753956262173	0.054825147974
2	137152	353.501860610646	0.094433271469
2	137273	353.646530919385	0.055523283013
2	137504	354.133151015415	0.104875278686
2	137628	354.373957209486	0.057621073484
2	137708	354.49646677564	0.064964198203
2	137849	354.650887236048	0.127416897387
2	137917	354.829221267875	0.069504874537
2	138049	355.174518156101	0.078859350163
2	138201	355.535456371683	0.038606271173
2	138288	355.82523978124	0.045370625035
2	138349	355.920387573786	0.059694460491
2	138740	357.257122162206	1.041908297077
2	138986	358.009069037636	0.089222161666
2	139092	358.148334920354	0.035372532402
2	139260	358.469936229131	0.070170205434
2	139334	358.638514201946	0.108324680446
2	139403	358.731875287537	0.061643493618
2	139485	358.828268704404	0.060296127417
2	139848	359.548675800933	0.06895319235
2	140433	361.087332187752	0.057709226236
2	140665	361.458731917183	0.1154414226
2	141309	364.179047660486	2.501473371418
2	141376	364.298896780579	0.069875419931
2	141494	364.443826481571	0.118348018469
2	141903	365.816134591775	0.561959518449
2	142303	366.789420385322	0.603097565985
2	142495	366.94814090517	0.087400010589
2	142760	367.568112840648	0.054926411431
2	142819	367.775101702887	0.26191527367
2	143244	369.268407548661	0.565368429806
2	143362	369.528607657622	0.072793673416
2	143471	369.889281671212	0.068690419153
2	143705	370.3202111101	0.068666653225
2	143804	370.439803848204	0.06124645373
2	143871	370.532912610119	0.058329841788
2	143939	370.699223000168	0.094765092362
2	144078	371.012976155334	0.087999174394
2	144249	371.303238342681	0.181089753421
2	144323	371.429674118645	0.057186745355
2	144526	372.117066090726	0.085977657404
2	144589	372.217257508215	0.082518840072
2	144638	372.3422649654	0.076065751583
2	144696	372.422684374215	0.039313464697
2	145001	373.084200714537	0.560167087779
2	145109	373.362732414398	0.061296481393
2	145228	373.536093255103	0.070240608322
2	145375	373.765123721758	0.053413791416
2	145851	374.791176804232	0.119077077588
2	146092	375.292590922347	0.05869574553
2	146152	375.361262856117	0.058770864519
2	146497	376.144585183806	0.107252482272
2	146652	376.435908503302	0.079927396122
2	146712	376.532170552037	0.084770419869
2	146792	376.768064103163	0.090955986997
2	147241	378.179936288127	1.077549078246
2	147367	378.384338599636	0.066586364605
2	147425	378.476976247842	0.076382558184
2	147640	379.235574510353	0.082988236148
2	148165	380.627901307414	0.072071214827
2	148286	380.97867847949	0.070717282731
2	148495	381.558703502577	0.058000706093
2	148561	381.714418058566	0.092055561252
2	148767	382.250468599634	0.067617652902
2	148907	382.5229738899	0.218686426697
2	149090	383.024873100925	0.065668223976
2	149184	383.286291952083	0.052509577867
2	149287	383.51323020096	0.083684487543
2	149425	383.925131869023	0.087095054575
2	149493	384.168136226411	0.069964628546
2	149687	384.610377655402	0.061512631169
2	149818	384.838127756604	0.077701217753
2	149905	384.937340387607	0.070737866159
2	150035	385.191880269021	0.070223969147
2	150423	385.881682575005	0.626931111224
2	150550	386.366772626861	0.065553775093
2	150606	386.47556887036	0.055002254088
2	150835	386.909599698544	0.096545651941
2	150877	386.988378850756	0.063198747583
2	151012	387.187533890762	0.063601860455
2	151079	387.384839323737	0.05858582171
2	151319	387.849769176597	0.087445272439
2	151648	388.984133873408	0.079313595843
2	151759	389.131912077273	0.070169356397
2	151924	389.388497503868	0.077524679871
2	152184	389.994365500951	0.075445010068
2	152448	390.900368719891	0.069277052645
2	152629	391.265534936301	0.083407643653
2	152697	391.358539475758	0.070762026739
2	153586	393.651571830338	2.166550517945
2	153752	394.209233243619	0.069437833371
2	154078	395.100170495425	0.251111445794
2	154202	395.493838303887	0.060053773754
2	154438	395.956616388048	0.108278986484
2	154602	396.486989738738	0.064991565307
2	154777	396.734116228684	0.122941629243
2	155081	397.571294219283	0.061212545968
2	155177	397.727607566372	0.08201231132
2	155395	398.074991391323	0.074343048485
2	155532	398.372543184805	0.371894841967
2	155960	399.45510669599	0.609975623206
2	156007	399.551945131076	0.077510511909
2	156120	399.737087609311	0.066690757411
2	156330	400.382884086046	0.111806873125
2	156472	400.673382959998	0.086090372854
2	156548	400.853957617959	0.102019911299
2	156615	400.987903282226	0.069993196613
2	156679	401.093440349748	0.064365460202
2	156816	401.453987831825	0.089448573677
2	156902	401.630350407388	0.071714436311
2	157145	402.215664116033	0.112950179946
2	157224	402.469783260665	0.073464543415
2	157285	402.563996605839	0.065072989925
2	157414	402.719815828399	0.088366981087
2	157688	403.218544722516	0.054823063802
2	157920	403.874633494309	0.059582939565
2	158137	404.577810794889	0.592916312511
2	158232	404.789892393852	0.056657370913
2	158353	404.968454906583	0.040667430333
2	158430	405.130707391252	0.127058954186
2	158558	405.474876939137	0.056080431194
2	158743	405.852784023425	0.060095689671
2	158817	405.980827413062	0.074655043218
2	158962	406.23553868519	0.083749885151
2	159027	406.338503914311	0.06376249028
2	159097	406.462831831378	0.097369869563
2	159351	406.905956996639	0.065327653691
2	159488	407.228697551584	0.086558965384
2	159591	407.459383316194	0.317244729994
2	160048	408.321863511191	0.585503464575
2	160137	408.440623776815	0.053491992741
2	160223	408.65545625872	0.06376688569
2	160394	408.998522055236	0.07004113856
2	160514	409.212638662911	0.083182623091
2	160605	409.360271169612	0.082905845557
2	160696	409.577845913961	0.092896235612
2	160797	409.889627680468	0.079783728997
2	161028	410.621513299071	0.583479375762
2	161172	411.21369628122	0.575252805189
2	161425	411.780917490569	0.050666729745
2	161762	412.675409047454	0.594924762697
2	161872	412.950779906149	0.077866413855
2	162106	413.367602390766	0.086124477795
2	162308	413.906584526386	0.076376131394
2	162468	414.312908539498	0.099845046065
2	162683	414.639032913062	0.051012118479
2	162749	414.76565819198	0.077440153484
2	163227	416.04688346116	0.060350315438
2	163597	416.868422774709	0.070409808018
2	163654	416.943457502424	0.065895253143
2	163757	417.205725080003	0.111090390765
2	163968	417.698031140756	0.050866315166
2	164076	417.973698928547	0.069394246364
2	164269	418.59825678935	0.086802376471
2	164472	419.25407159743	0.587881189188
2	164585	419.38935864925	0.064859487705
2	164737	419.621617373244	0.0859372331
2	165572	422.267447755414	1.615982851749
2	165695	422.592006048331	0.086215319189
2	165818	422.763034225826	0.055343932538
2	165964	422.945872022669	0.069375172092
2	166122	423.16915352269	0.105171792709
2	166254	423.410196887002	0.078703485761
2	166361	423.568901953319	0.048071618859
2	166459	423.807981701996	0.067863498244
2	166729	424.274274465006	0.063823856252
2	166899	424.863039485047	0.072467166707
2	166954	424.983657166444	0.064172409279
2	167032	425.186374188879	0.087203976492
2	167121	425.358481496858	0.064949653089
2	167288	425.839173806457	0.0876737196
2	167464	426.193688369331	0.065753096916
2	167576	426.355424350748	0.079850478735
2	167641	426.508557346609	0.070509558692
2	167932	427.294182734308	0.078553649607
2	168229	428.169898527963	0.580405389584
2	168419	428.387456969606	0.067861853935
2	168707	429.037350837107	0.556780680529
2	168873	429.429489161008	0.076544518842
2	168976	429.73115217857	0.074926116403
2	169091	430.089551120157	0.100228982369
2	169183	430.216576148499	0.102174213977
2	169934	432.75828485008	1.648507362299
2	170019	432.887548918708	0.071484955394
2	170245	433.880300689159	0.689157207593
2	170404	434.3502975637	0.077774982444
2	170473	434.532168505957	0.074587981062
2	170633	434.868602737952	0.073796071091
2	170846	435.330985566869	0.099424561427
2	170947	435.683045031748	0.063257670391
2	171101	435.957684000181	0.076969744981
2	171251	436.185574483195	0.084842621078
2	171331	436.274213950275	0.068557580802
2	171536	436.708753203013	0.094629524878
2	171678	437.137072240853	0.107116192828
2	171714	437.208701738329	0.040947124309
2	171920	437.568596698849	0.085387870198
2	172080	437.781143965995	0.068877257622
2	172491	438.694226517503	0.078116489017
2	172578	438.859901623166	0.049474230773
2	172920	440.132469177899	0.057819031308
2	172987	440.293084953586	0.08853405496
2	173095	440.636724254026	0.047808146881
2	173601	441.711130545522	0.677779915236
2	173945	442.515871727281	0.610246199066
2	174005	442.635643319041	0.062754329432
2	174076	442.731732957536	0.073368200726
2	174142	442.902990831144	0.056069558402
2	174269	443.283905778713	0.07290114043
2	174450	443.912896673204	0.275507869355
2	175026	445.781770444394	1.559396498712
2	175279	446.509249236238	0.075889804245
2	176063	449.346091760644	1.448739274958
2	176322	450.366378040188	0.082029515657
2	176443	450.587326857055	0.087695996742
2	176662	450.854755919588	0.053997039237
2	176901	451.461014492717	0.081254914913
2	177058	452.001265059124	0.05941773368
2	177222	452.235514934131	0.084987801088
2	177576	452.962828371543	0.623078330908
2	177733	453.207734955835	0.07579760607
2	177877	453.564744014115	0.08638787361
2	177967	453.772864567944	0.061343957585
2	178033	453.875370063461	0.081908283249
2	178115	454.068966494381	0.275504714169
2	178252	454.410451951688	0.065882555902
2	178606	455.115341803037	0.560296207581
2	178766	455.404270844125	0.073564738208
2	178950	455.893977048125	0.482967025585
2	179044	456.07271229513	0.050167853373
2	179206	456.548161132339	0.068244261235
2	179296	456.65876278239	0.086192626103
2	179697	457.646323203743	0.561825670357
2	179732	457.712226367015	0.065601233956
2	180092	458.686857365766	0.052388125392
2	180188	458.84274541031	0.0547307029
2	180523	459.495247020683	0.122341811233
2	180595	459.617494210222	0.09791334528
2	180704	459.725658023599	0.100721432117
2	181097	460.357469368438	0.055687339584
2	181234	460.708236077121	0.080370724118
2	181315	460.89232564176	0.067053864477
2	181622	461.909741837191	0.548213593342
2	181672	461.978204246596	0.057529170686
2	181845	462.613731622632	0.068473535539
2	181888	462.706524771718	0.074410271566
2	181954	462.767833596488	0.056715675152
2	182051	462.861623923449	0.067441519595
2	182191	463.216979122882	0.110860032551
2	182267	463.324641363127	0.073989260299
2	182450	463.587269952158	0.067172327679
2	182606	463.841138658031	0.050232940765
2	183085	464.97222366853	0.104534432915
2	183282	465.747210532253	0.085101062043
2	183347	465.87271570203	0.07741707867
2	183733	467.198494214718	0.568741292526
2	183882	467.418740899298	0.05649297879
2	184289	467.949533657425	0.344071792977
2	184348	468.127718743052	0.051905563483
2	184675	469.146384458404	0.071408781123
2	185225	471.283993526743	1.295031266399
2	185328	471.463168107994	0.045548695132
2	185685	472.076923314472	0.227010324549
2	185993	472.933116254082	0.060640281226
2	186109	473.027083600849	0.055885935161
2	186310	473.649325451431	0.064764060451
2	186470	474.075217536238	0.086507489667
2	186586	474.235420639863	0.078765043514
2	186863	474.855249809357	0.078884332023
2	186986	475.22363473094	0.10113842939
2	187220	476.039490786171	0.716199849923
2	187400	476.658795257646	0.566753091915
[...]
4	233591	594.139147011999	0.270537474734
4	233760	594.679526171172	0.001202123064
4	235457	599.142180411072	0.144402858737
4	235954	600.098396972656	0.183294755029
4	236198	600.56600256313	0.203998628834
4	236612	601.512339826125	0.319662494679
4	237290	603.404305369378	0.206983743373
4	239071	607.72298344553	0.230682906122
4	239758	609.426105763311	0.193065944196
4	240299	610.638279366218	0.186044655983
4	241680	614.734997377523	0.253731994991
4	241691	614.741853185268	0.34339606201
4	242369	616.659367304918	0.059607634711
4	242454	616.946962242137	0.177928725703
4	243746	620.271220935027	0.187168062018
4	245380	624.994502033503	0.126748969437
4	245472	625.219289425787	0.174698524187
4	246072	626.442808061811	0.374248234137
4	246243	626.984273044861	0.290322307873
4	248761	632.895759626517	0.091831321731
4	249635	635.347504225756	0.251901972211
4	250442	637.17943526232	0.07017535686
4	252150	641.607734253769	0.153632516191
4	252681	643.142706303139	0.245767536456
4	253341	644.922118212588	0.08352963813
4	254004	646.491200945589	0.221763026214
4	254381	647.321548896285	0.092816512618
4	255341	649.690731894958	0.328970986172
4	255799	650.821806321209	0.134383439644
4	256054	651.388790510817	0.12066249024
4	257048	653.790816122819	0.320243727581
4	257218	654.539929583481	0.06313388442
4	257317	654.784982679085	0.12503605634
4	257683	655.424143352033	0.317430404337
4	260001	661.630312433999	0.700971954951
4	260005	661.633074517323	0.658314007056
4	260021	661.642086697534	0.585539754829
4	262525	668.136675105709	0.263591329147
4	262867	668.835287723728	0.240980131582
4	263608	670.505076151319	0.417742736246
4	264232	672.2817836583	0.100176399885
4	265846	676.369572189497	0.151016497627
4	266067	677.20908889361	0.108188304494
4	266723	679.155928732924	0.388354919835
4	266907	679.648016687815	0.14142705997
4	267154	680.319982115355	0.230094744825
4	267622	681.362189295123	0.209002678999
4	267676	681.429468930645	0.323745566519
4	267843	681.723358690313	0.293078146181
4	268932	684.691631818893	0.134872419543
4	269673	686.552974809723	0.172073476461
4	270691	688.937452621985	0.376953623752
4	271251	690.049141081003	0.138132361559
4	271575	691.035052370887	0.181145723828
4	271708	691.428056649918	0.12759967868
4	271746	691.528445407323	0.15446872666
4	272972	694.215873923667	0.207393877247
4	274439	698.370217952323	0.328559001821
4	276773	705.661777307853	0.095212710673
4	277681	708.765240434484	0.160731087069
4	277744	708.9052085934	0.065216732709
4	277794	709.064491261898	0.070855585105
4	278250	710.550820663358	0.078720898754
4	279531	713.955713399348	0.226789660467
4	280026	715.025011912286	0.607673623634
4	280092	715.166227534509	0.064204695459
4	280582	716.343612881725	0.308822275727
4	281066	717.376902855441	0.07114085127
4	281623	719.182396775335	0.573830567344
4	281630	719.184803444592	0.397342553177
4	281678	719.296179453629	0.083861885979
4	282086	720.573598590667	0.472285805058
4	283311	723.768115185641	0.984392181023
4	283902	725.495194009821	0.531766139799
4	283941	725.542912558226	0.171807232617
4	284111	726.019783322989	0.171578673167
4	286163	731.410407882903	0.131358964406
4	287620	734.405688997109	0.116983070405
4	290164	740.487287209517	0.407191774376
4	290624	741.695076708646	0.201116747206
4	290825	742.254420519036	0.218530073191
4	292258	745.163711077762	0.328753871631
4	292675	746.143839253008	0.242378040912
4	293227	747.594481534474	0.238499247513
4	294351	750.51229915898	0.126090086521
4	294359	750.525283937722	0.124042140839
4	294798	751.641537849778	0.143284095751
4	297111	756.358522201007	0.18818917471
4	297335	756.967929605841	0.223725066588
4	298998	760.131000858975	0.54879751547
4	299165	760.819652002846	0.049851248419
4	299724	762.780450216111	0.763300954776
4	300543	765.621911187731	0.216187083043
4	300832	766.249397734113	0.156601273003
4	301658	768.415018405474	0.093217129153
4	303445	772.821623911069	0.107658198013
4	303685	773.729662522212	0.112873562486
4	305096	777.66831869912	0.249706913918
4	305245	778.071916980913	0.237485844996
4	306030	780.314347810092	0.067021975918
4	307258	783.569521576551	0.217886340753
4	307781	784.922401095071	0.213054529808
4	309168	788.139609352268	0.230234402413
4	309180	788.157724330637	0.117557205108
4	309945	789.786262216206	0.114862782115
4	310220	790.47632600262	0.694715162186
4	310268	790.543828217928	0.266872064908
4	310418	790.80012226042	0.109386429413
4	310670	791.787214560154	0.31963598668
4	311840	794.135536488794	0.136063335868
4	313274	797.542987693547	0.243267986043
4	313689	798.482152154433	0.206770446257
4	313793	798.590753336008	0.107140182702
4	315951	804.782666861309	1.491283484577
4	316127	805.110349850096	0.215253392144
4	316299	805.692215927845	0.110829794736
4	316453	806.000227862152	0.061491655232
4	316776	806.676637066158	0.198089808996
4	317342	807.856829558449	0.246714573468
4	321911	819.677791916518	0.360524698825
4	323881	824.688501023064	0.165131910779
4	324441	826.078138297025	0.264422560808
4	325114	828.006666024338	0.132771742151
4	325649	829.373320421075	0.067473202818
4	325876	830.119008329351	0.314801267333
4	326596	832.546431601868	0.09816585676
4	327584	834.859379581061	1.20576514938
4	327838	835.132223846554	0.168218351612
4	328792	837.326479442885	0.136133743952
4	329079	838.34073488839	0.16618648201
4	329386	839.087238454911	0.415028276268
4	329480	839.399652443682	0.758528924692
4	329489	839.405257344879	0.649213620103
4	330748	842.833960911822	0.112268660259
4	331653	845.897323048877	0.353559049512
4	332493	847.762910551494	0.212760135021
4	334173	851.994680577893	0.37053123931
4	334309	852.235652955598	0.090965367472
4	335602	854.751070036185	0.157386457376
4	337336	858.618816653416	0.271782217723
4	337931	859.885666024768	0.151215588144
4	338774	862.266270207093	0.189486689601
4	339246	863.640276333843	0.10765088786
4	339402	864.101163516022	0.10655387205
4	340113	866.115787602819	0.224386930243
4	340414	867.209475156508	0.295333268243
4	342739	873.24109670607	0.266800926019
4	343527	875.789484573802	0.192671772686
4	344581	878.72160174818	0.109875003622
4	344838	879.759152392151	0.390795213022
4	344987	880.104130042005	0.558840804426
4	345180	880.848282396388	1.010083668016
4	345186	880.853300659121	0.57757190312
4	345375	881.322134460584	0.076857639702
4	345697	882.38458782776	0.228970525734
4	346861	885.539352848029	0.304563915474
4	347865	887.846037088961	0.162535553054
4	348526	889.329539507005	0.136033212708
4	348706	889.906113192092	0.07319041635
4	349797	893.412502850431	0.420318391564
4	350020	894.107913835824	0.42787882514
4	350422	895.999313469422	0.159124717862
4	351907	899.60971828542	0.195771015351
4	352618	901.689848229854	0.199115137255
4	354833	907.050192561731	0.257303502677
4	354868	907.181522285263	0.149356053117
4	354988	907.516381531488	0.089545577884
4	356172	910.080952242574	0.585993992018
4	356306	910.405104935527	0.082170401419
4	357293	913.121262951744	0.828543972298
4	357450	913.705601932082	0.558034995556
4	357453	913.70638006677	0.10204499772
4	358761	916.946674617185	0.095400741509
4	360825	922.196571990906	0.153866255248
4	361221	923.6206989191	0.177048641719
4	361377	924.032276992803	0.158048804358
4	362583	926.474363367582	0.280750179903
4	363680	929.447622673208	1.834560927647
4	364036	930.832019686875	0.441533724728
4	364306	931.838303097147	0.184811465526
4	365228	933.959219378079	0.3653639839
4	365587	934.989882652045	0.124284236329
4	365931	936.257899822721	0.133483546221
4	367326	939.974921708711	0.324589818384
4	369196	944.194191506226	0.246055539027
4	369919	946.505974734481	0.161672241651
4	370159	947.333692616436	0.139000497872
4	372995	953.929536628031	0.723510593511
4	373167	954.234256479314	0.202498993431
4	374003	956.473503399878	0.16649775237
4	374920	958.73115415525	0.116398617297
4	375021	958.99839345741	0.216317993937
4	376835	962.755116390164	0.18606504898
4	377796	964.908888897132	0.517867510755
4	378415	966.347886022685	0.209889691398
4	378772	967.189517545871	0.107122865922
4	379519	970.107488057241	0.066419042371
4	379581	970.226980837072	0.261950109662
4	379795	970.809725727706	0.188480911804
4	380558	972.601308972178	0.139151693874
4	381806	977.731431251603	1.835091017192
4	382016	978.223019110459	0.117420980415
4	382231	978.727197240931	0.326280055783
4	382637	979.430898832525	0.151697533638
4	382953	980.42568189591	0.186263104544
4	385173	985.818386766623	0.173287209265
4	386202	988.622260078397	0.277341247332
4	388027	993.94314054988	0.166965253108
4	388202	994.315028378943	0.186160166023
4	388901	996.447918053394	0.151710015749
4	388957	996.712180983243	0.045767288574
4	389657	998.59214850187	0.14525171008
4	390697	1001.414499445759	0.228682522356
4	391185	1002.371660601316	0.143524710357
4	392143	1004.309039634427	0.375527363389
4	394730	1011.088584360435	0.183572137792
4	395642	1012.917263865967	0.252743811039
4	396055	1014.582364158455	0.055092815701
4	396533	1016.111952980723	0.386999850822
4	396841	1016.761325904796	0.267942369024
4	397383	1018.439457906777	0.161919347823
4	398617	1021.492337244725	0.140533898545
4	398961	1022.608299682157	0.182152233353
4	399629	1024.198189167139	0.211627449903
4	399942	1024.542509493098	0.789668337753
4	400550	1025.870265632276	0.213804271495
4	401788	1029.050256736101	0.421712984558
4	401887	1029.139669351579	0.122486970559
4	402616	1030.630618084045	0.241504586663
4	402790	1030.903026238966	0.215403579339
4	403016	1031.516684806212	0.122784871995
4	403368	1032.66285568101	0.10525608527
4	404777	1036.030828651459	0.232437275827
4	405205	1036.693842587935	0.318714163486
4	407059	1041.067245635346	0.16046966154
4	407903	1043.10685020403	0.089062661917
4	408621	1044.607547104694	0.155976159291
4	409576	1046.389830829624	0.084778849587
4	410409	1048.384052004619	0.131084648987
4	411341	1050.942294477522	0.337428555617
4	412025	1052.690288165964	0.133312652988
4	412584	1054.11540912525	0.222870318324
4	413667	1056.429402683319	0.073238937156
4	414706	1058.989721137257	0.228520760457
4	415811	1061.842921525128	0.313055573371
4	417154	1065.52188233976	0.054809520351
4	418193	1067.77413926811	0.16622452678
4	419505	1070.334608667333	0.14238601899
4	420141	1072.359839721054	0.120914819699
4	421868	1077.167438507139	0.211204058861
4	422839	1080.07173610028	0.568363843436
4	423213	1080.879472988016	0.463284296672
4	423412	1081.43358054732	0.089496785169
4	423499	1081.530936796039	0.286145075031
4	423554	1081.608764013384	0.684403146539
4	424919	1084.859518448843	0.111365354455
4	425092	1085.263149368577	0.194488370039
4	425654	1086.418613122834	0.454751260593
4	425697	1086.497693505365	0.19959753051
4	426137	1087.45914782318	0.143193975213
4	427400	1090.97884306205	0.388261595841
4	427433	1091.030032194542	0.052421617648
4	428040	1092.652674043595	0.386510236978
4	429787	1096.906250836842	0.182365965165
4	431015	1100.223253798528	0.453002785888
4	431041	1100.238703468224	0.562698717114
4	431678	1102.121871346827	0.153659941978
4	432791	1104.585415407433	0.373294647583
4	433045	1105.331043816673	5.674991713938
4	434335	1109.233117934374	0.077589401584
4	434520	1109.699866313866	0.22414525635
4	434831	1110.983015523335	0.098412301315
4	435021	1111.78208392463	0.201448334191
4	435480	1113.684599390564	1.312242145894
4	437168	1118.492946459546	0.271132182433
4	437351	1118.726654487997	0.221821875787
4	438693	1122.849891806998	0.155553231363
4	439180	1123.779593499057	0.227183934674
4	440420	1126.794910164349	0.291783276079
4	442085	1130.889388311136	0.071484337373
4	442563	1132.529443705765	0.125282542927
4	442835	1133.235815352046	0.320005066546
4	442891	1133.286590882364	0.279200362956
4	444022	1135.956949467806	0.332962096432
4	444423	1136.530827450548	0.066449855405
4	444952	1137.799753800359	0.285346866979
4	445153	1138.222647267243	0.18464806747
4	445426	1138.747428994157	0.167636843639
4	446544	1141.922633416503	0.052054542582
4	447710	1144.986607441986	0.319538441035
4	448242	1145.922088808203	0.343852667219
4	448897	1147.848245281945	0.006620673025
4	449941	1150.876588779008	0.144806126072
4	452118	1156.457715880773	0.104101909695
4	454391	1162.85904599908	0.213456492916
4	455076	1164.741103831299	0.222906613964
4	456030	1167.685325997107	0.065341887529
4	457706	1170.569087768761	0.1881625548
4	460324	1177.099908364455	0.188183013744
4	460352	1177.161371206476	0.223582193232
4	461161	1178.799276376336	0.328096865337
4	461932	1180.675100691629	0.159726518959
4	462094	1180.995648715987	0.138250654168
4	462976	1182.838466409503	0.054272656951
4	463314	1183.512004420806	0.148689274091
4	464629	1186.578888749969	0.383854218795
4	465535	1189.290466892894	0.920186850117
4	465554	1189.303546923671	0.410572506085
4	466865	1192.265525928864	0.191086279635
4	467492	1193.519387190637	0.296179668531
4	467934	1195.1399140239	0.834385131923
4	468161	1195.538745402147	0.253942119595
4	469512	1200.041605185919	0.055705263646
4	469561	1200.114300844295	0.511497884557
4	469609	1200.23612158507	0.062942121483
4	469878	1201.212032503351	0.130469592066
4	471775	1204.688868947106	1.121612765387
4	472329	1205.890433370464	0.471871159486
4	473364	1207.62786444404	0.619316409081
4	473499	1207.897088259334	0.187208210594
4	474274	1210.463317809406	0.228931389591
4	475245	1212.719815866493	0.308231742572
4	477901	1219.346497466601	0.210777278638
4	479055	1221.801161530321	0.834376882331
4	479221	1222.309625553762	0.097807211627
4	479648	1223.924332507317	1.134456201826
4	480410	1226.261557313063	0.114424148566
4	480733	1226.844174015874	0.363045809281
4	482048	1230.355848830427	0.307649392256
4	482203	1231.020780577327	0.10968055615
4	482215	1231.028487580439	0.153048827425
4	482259	1231.097075801388	0.201671421912
4	482428	1231.740694777688	0.056599489912
4	482671	1232.540702864393	0.251244472891
4	483735	1234.70129983849	0.429643926518
4	484565	1236.78177442978	0.05692817983
4	485036	1238.02491731179	0.177069721753
4	485516	1239.279623738627	0.377323213333
4	486760	1244.001743063126	0.07464522835
4	487804	1246.504560772768	0.22459987292
4	488219	1247.009185486803	0.67219496366
4	490648	1252.704049067952	0.331930294561
4	490787	1253.11469456388	0.225169810461
4	491169	1253.925850931683	0.232137978655
4	491556	1254.795070593443	0.183865826573
4	491764	1255.362101057501	0.130776653373
4	492442	1257.162976176275	0.26647169329
4	493125	1259.362108681097	0.506636012375
4	494224	1263.341519970585	1.250552176637
4	494240	1263.346511120561	1.225851000979
4	494532	1264.276212144149	1.871497544324
4	495481	1267.144070764058	0.062141343795
4	495609	1267.466658106244	0.173163358
4	496464	1269.618772781512	0.14315845034
4	498208	1274.269327712055	0.634439737982
4	499587	1278.093744643635	0.137197953851
4	499929	1279.035555788602	0.34441131545
4	500392	1279.833995842049	0.133514830901
4	500913	1281.530059383762	0.116262324953
4	501434	1282.782374647916	0.150351148389
4	502048	1284.436414104898	0.151590201668
4	502341	1285.178518044294	0.226653658029
4	503198	1287.917164545564	0.113299623513
4	503463	1288.387140394381	0.152831066492
4	503552	1288.605781128401	0.077650254908
4	504632	1292.007051786067	0.311471640286
4	504667	1292.075177035565	0.170028891078
4	505263	1293.850252002942	0.280190595968
4	506679	1297.809828340285	0.197789522917
4	507596	1299.540553175294	0.574334886633
4	508180	1301.569088492339	0.149292286495
4	508327	1301.956670394043	0.236905431367
4	509199	1303.927193076419	0.251197225903
4	511794	1311.143791393889	0.419568358584
4	512074	1311.955083236509	0.631437680879
4	512220	1312.177942333214	0.125832688087
4	512845	1313.945370822034	0.234450114304
4	514649	1318.480612009114	0.220623725865
4	514798	1318.601247302671	0.450722020705
4	515082	1319.215451426558	0.089482176614
4	515866	1321.101369801059	0.180247424054
4	516118	1321.930922147138	0.105836760068
4	516711	1323.668583926863	0.143793834934
4	517031	1324.710403546361	0.10042898459
4	517278	1325.412958271422	0.12339866073
4	517931	1327.189852873001	0.371401702351
4	518237	1327.68831814065	0.201423854268
4	518652	1329.043234412226	0.065563114079
4	518822	1329.324957383126	0.119447809842
4	519402	1330.72241213858	0.220874328011
4	520290	1332.89843381528	0.38984491649
4	520758	1333.790438132169	0.164137341471
4	521032	1334.64371788018	0.123323502238
4	522860	1339.457654697804	0.277747373582
4	522987	1339.911396534524	0.118704340757
4	523055	1340.087413492886	0.263709503962
4	523422	1341.672191004089	0.336700812058
4	523801	1342.711636947859	0.640354980198
4	524593	1344.718619246149	0.089362517088
4	524666	1344.914660518486	0.204304408487
4	525205	1346.968177526546	0.139152258949
4	525306	1347.252064257814	0.215128169669
4	526363	1349.619905005041	0.131134018697
4	528327	1354.03396222704	0.116051220176
4	528561	1354.384491918996	0.308220055147
4	529856	1357.513562664908	0.346121304943
4	531109	1360.385383013604	0.267853490995
4	531325	1360.840115866832	0.100674120146
4	531855	1361.866184895843	0.226265967492
4	532652	1363.267609414457	0.014346477448
4	534690	1367.764174780331	0.08591208522
4	534855	1368.166938646977	0.311838794219
4	535812	1370.758099103674	0.123926891602
4	535962	1371.060773886298	0.205085901504
4	537005	1373.209310949845	0.106156492753
4	537144	1373.33705725581	1.025047947009
4	537709	1375.07652229949	0.289132964523
4	538151	1376.371882490954	0.146662506175
4	538280	1376.662709705576	0.208061573651
4	539999	1382.053784188886	0.15192741678
4	540109	1382.482463011116	0.084048397188
4	540771	1383.890297123899	0.192954700732
4	541461	1386.253025885012	0.157366094994
4	541826	1387.726295535049	0.172742139247
4	541830	1387.727692893347	0.139454659974
4	542571	1389.593426286132	0.290610080341
4	542963	1390.262096064809	0.052197802896
4	543415	1391.899883683925	0.230353472291
4	545001	1396.556087694077	0.128113163101
4	545337	1397.70210426634	0.104874813746
4	545565	1398.61668625729	0.080727831949
4	546284	1400.523178679452	0.143273984946
4	546465	1401.284157109366	0.127252187316
4	548523	1406.841114577474	0.107102031104
4	549294	1408.92477339335	0.122189987038
4	550338	1411.782021316356	0.140889849954
4	551555	1414.637705073642	0.140025940257
4	552167	1416.256460200403	0.236339367547
4	554572	1421.436684097345	0.17979368768
4	555030	1422.83302047354	0.280317319148
4	555033	1422.83318011136	0.226852043559
4	557180	1428.61099528354	0.1591389101
4	558036	1430.831046843592	0.173514198576
4	559288	1434.076163227288	0.127511023248
4	560228	1436.42488876758	0.297797580017
4	560628	1437.44610243087	0.03052271507
4	561780	1440.026539640277	0.13988607325
4	562304	1441.819763324931	0.193347471834
4	562610	1442.427578960286	0.294068937397
4	564607	1447.076783465574	0.21796161302
4	564899	1448.281996867887	0.047005110881
4	565685	1450.428822617078	2.833491711862
4	566075	1451.65389865543	0.13304707742
4	567262	1455.031051164987	0.164413203571
4	567643	1456.100623759119	0.423245769322
4	567855	1456.785955201949	0.406889050985
4	569014	1460.244274744251	0.071407576204
4	569247	1460.683423425018	0.348657352769
4	569473	1461.125849178963	0.177851284803
4	569812	1461.746421136724	5.448022655918
4	570272	1463.023089838949	0.304890706357
4	570464	1463.705267514774	0.140806608057
4	570607	1464.040071895187	0.207017834985
4	571530	1466.748897796211	0.247412742481
4	572253	1468.64175607888	0.23652922664
4	573578	1472.283648377448	0.166673870808
4	574073	1473.335809824641	0.223264943927
4	574669	1474.829372781042	0.695341958638
4	576360	1478.94974620997	0.23174751898
4	576734	1480.181300140971	0.137249083808
4	577385	1481.671579041501	0.224438533506
4	577461	1481.832649155348	0.117494692213
4	577874	1482.785770480133	0.117986151113
4	578305	1483.885264118526	0.161547128417
4	579291	1486.012417566799	0.23236713054
4	582444	1494.043769557302	0.186698244626
4	583985	1497.546295122506	0.088704956832
4	585697	1501.57087526353	0.209763078366
4	585991	1501.998701761928	0.253993472988
4	586702	1503.712158227065	0.261282596922
4	587814	1505.686698182057	0.155521621104
4	588662	1507.4846220952	0.276704532699
4	589556	1509.459002711371	0.223195347126
4	589753	1509.823972599253	0.127556582961

