version 2
run General-0-20220701-23:08:45-4668
attr configname General
attr datetime 20220701-23:08:45
attr experiment General
attr inifile omnetpp.ini
attr iterationvars ""
attr iterationvarsf ""
attr measurement ""
attr network Raft
attr processid 4668
attr repetition 0
attr replication #0
attr resultdir results
attr runnumber 0
attr seedset 0
param Raft.numServers 5
param Raft.numClients 2
param Raft.client[*].numServers 5
param Raft.client[*].sendCommandTimeout 0.9s
param Raft.statsCollector.numServers 5
param Raft.server[*].numServers 5
param Raft.server[*].canFail true

vector 0 Raft.statsCollector consensusTime:vector ETV
attr interpolationmode linear
attr title "Time required to reach consensus on a new leader, since network is leaderless, vector"
attr unit s
vector 1 Raft.statsCollector consensusMessages:vector ETV
attr interpolationmode linear
attr title "Number of messages exchanged on the network to reach consensus among servers, vector"
vector 2 Raft.client[0] commandResponseTime:vector ETV
attr interpolationmode linear
attr title "Total response time of client request, vector"
attr unit s
vector 3 Raft.client[1] commandResponseTime:vector ETV
attr interpolationmode linear
attr title "Total response time of client request, vector"
attr unit s
0	77	0.867619522127	0.867619522127
0	312	5.466776986818	0.880114455453
0	506	9.511202585094	0.873222268328
0	702	13.370440217557	1.853926155138
0	850	15.560010648272	0.454756994221
0	932	17.106301866799	0.438080010891
0	1038	18.940833247978	0.015488135024
0	1155	21.616602998082	2.184467823947
0	1224	22.943812094718	0.015488135024
0	1286	24.033397701509	0.440972121271
0	1386	26.480800766406	1.801844777752
0	1616	30.877751269736	3.083942374733
0	1749	33.415642859474	1.37609154743
0	1794	34.394377528124	0.457685248811
0	1947	36.595241054317	0.015488135024
0	2089	40.079663327388	1.750423882277
0	2242	43.33903807037	1.732763947224
0	2506	48.198426637382	2.236209289012
0	2630	50.510181866136	0.015488135024
0	2727	53.231369056594	1.818562307165
0	3013	58.475109587609	0.476521437885
0	3179	62.150414472205	1.775110112204
0	3218	63.047130210203	0.426140287683
0	3590	70.402983058454	2.654890634231
0	3770	73.928527641252	1.900022140169
0	3899	76.002391091226	0.015488135024
0	4015	77.897990149545	1.446478170135
0	4274	82.85648001482	2.250907610405
0	4389	84.238400331894	0.015488135024
0	4499	86.260297614412	1.34837900468
0	4526	86.688916726977	0.015488135024
0	4579	88.099552417954	0.905821384027
0	4654	89.394795092977	0.015488135024
0	4814	93.065781865545	2.330754065309
0	4964	95.485681942481	0.015488135024
0	5320	103.064894851161	6.466476213665
0	5533	107.112446682966	2.256179376928
0	5723	111.478176216021	1.830519685464
0	5838	113.053813175034	0.015488135024
0	6007	116.444106968686	1.807235811957
0	6214	120.23685820935	1.767364408032
0	6318	121.117661065901	0.42936227068
0	6383	122.013306438147	0.463106455282
0	6479	124.225458154118	1.278976994755
0	6712	129.495212124385	1.789507436662
0	6828	131.481375095149	0.458855411878
0	6905	133.086531308218	0.484066362284
0	6951	133.989339047808	0.433487224162
0	7058	135.540745146222	0.015488135024
0	7308	140.294639294073	0.430340992288
0	7387	141.893561462179	0.935875648705
0	7740	148.007934589333	2.161796814534
0	7924	151.836558784224	1.815944835478
0	8132	156.558377172064	2.490511951671
0	8243	158.178654479923	0.015488135024
0	8389	160.958212415063	1.846087949726
0	8738	167.049234064244	2.128936077994
0	8894	169.939426497741	0.902359081086
0	8958	171.086501426938	0.015488135024
0	9028	172.533233575934	0.015488135024
0	9091	173.298516372901	0.015488135024
0	9194	175.915092815022	1.34430105566
0	9287	177.078482602195	0.015488135024
0	9351	177.776875870103	0.015488135024
0	9445	179.527426755221	0.897781512633
0	9675	184.613774028125	2.869028383707
0	9855	188.534864085469	2.386458930259
0	9922	189.451383169869	0.015488135024
0	10040	192.194323206512	1.386697807469
0	10065	192.63903946479	0.015488135024
0	10156	194.436286244154	0.015488135024
0	10240	196.384746342537	1.317346686803
0	10286	197.285636833114	0.015488135024
0	10449	200.998243481859	2.356382170091
0	10633	204.113592747387	1.408937840329
0	10853	208.913841243698	2.517336973741
0	11333	217.562994575795	0.271363530286
0	11514	222.081665168671	2.483223870454
0	11723	225.966466838843	2.394035165574
0	11897	229.965194134732	2.200390045208
0	12034	232.428242528828	0.015488135024
0	12324	239.023131429586	1.762448414464
0	12455	241.072884657115	0.439402418003
0	12538	243.675171338055	1.364467469203
0	12616	244.77712471392	0.015488135024
0	12724	246.683241053201	0.015488135024
0	12808	247.172419749942	0.015488135024
0	12960	250.518064813888	1.832584246274
0	13090	252.455440375772	0.015488135024
0	13222	255.168871086342	0.902589443328
0	13284	255.603994780612	0.015488135024
0	13322	256.036011831141	0.015488135024
0	13491	259.615686987208	2.237242064978
0	13669	262.50455494556	1.395029651782
0	13734	263.651237001845	0.015488135024
0	13833	265.371612143266	0.015488135024
0	13975	267.910785731373	0.015488135024
0	14111	271.542730344981	2.96395698337
0	14222	274.061603374408	1.348753691561
0	14301	274.961347326189	0.015488135024
0	14371	275.473957544422	0.015488135024
0	14405	275.943855553211	0.015488135024
0	14458	276.883017057203	0.015488135024
0	14685	281.458977124389	4.568490725702
0	14916	286.78782707467	4.415841763908
0	15038	289.008065734842	0.015488135024
0	15103	289.890144555171	0.015488135024
0	15341	295.188322609865	3.523188469265
0	15438	296.535625533415	0.015488135024
0	15597	299.929707174729	2.52335435315
0	15827	304.170429885953	0.015488135024
0	15912	306.22519435815	0.47894930735
0	15985	307.618138168498	0.899417001197
0	16034	308.45942654085	0.015488135024
0	16293	312.924369934488	0.015488135024
0	16344	314.04551505026	0.478493783206
0	16509	317.981756940742	3.121712898907
0	16632	319.818381071351	0.015488135024
0	16717	321.644380515005	0.88456410859
0	17037	327.443962185563	1.391404032314
0	17158	329.262564628503	0.015488135024
0	17218	329.730726927615	0.015488135024
0	17307	332.401062746725	2.230136928361
0	17617	336.714984585949	1.854768542367
0	17722	338.344789595972	0.015488135024
0	17870	340.989270269782	1.772885075914
0	17946	342.337793140701	0.015488135024
0	18387	350.359581883447	0.896125338415
0	18438	351.272015902003	0.015488135024
0	18541	353.529294561258	1.789132417044
0	18591	354.161635363581	0.015488135024
0	18636	355.294647770775	0.454600838993
0	18725	356.936311942438	0.468680663991
0	18903	361.213674535166	2.601304373964
0	18987	363.020292338317	0.015488135024
0	19079	364.827570228269	1.317050488133
0	19150	366.325828391703	0.447149716645
0	19235	367.918612332611	0.015488135024
0	19340	370.168346333382	0.444150671435
0	19407	371.507578251497	0.436484956045
0	19526	373.251754005252	0.015488135024
0	19671	376.650780648381	2.712660820833
0	19818	378.712477265327	0.015488135024
0	19980	381.450685172998	0.015488135024
0	20031	382.206663191998	0.015488135024
0	20192	385.946093390811	2.621413577889
0	20369	388.628170149948	0.015488135024
0	20471	390.843833209799	1.372964940595
0	20675	394.690621160862	2.18668515665
0	20876	397.088195451136	0.866235120689
0	20971	399.592152108415	1.808406007781
0	21188	403.675239939233	2.430981475722
0	21290	405.510577570732	0.015488135024
0	21417	407.521766955167	0.449507872389
0	21548	410.225034213346	2.264906949299
0	21648	412.191092823389	0.015488135024
0	21814	415.733231387126	0.015488135024
0	21957	418.224423095155	0.015488135024
0	21999	418.680642918163	0.015488135024
0	22207	422.524527663397	2.108001413828
0	22267	423.148049736719	0.015488135024
0	22298	423.598793743551	0.015488135024
0	22433	426.33919810022	0.445212635655
0	22525	427.860174933953	0.015488135024
0	22591	429.154917727883	0.015488135024
0	22664	429.855944175363	0.015488135024
0	22873	434.342762635392	0.931047436807
0	22964	435.339165381437	0.520161227325
0	23070	436.474027964173	0.015488135024
0	23174	438.973652867337	1.842216660317
0	23300	440.530368843763	0.425111712773
0	23468	443.839078469211	0.015488135024
0	23557	445.786875909426	0.015488135024
0	23643	447.503062003603	0.951530608491
0	23729	449.568671083646	1.598244609474
0	23764	450.132809172724	0.015488135024
0	23871	452.200475495824	0.015488135024
0	23977	453.994116436742	0.903240252869
0	24247	459.682828198952	0.850165827108
0	24300	460.584280521841	0.428252521135
0	24395	462.431441968843	0.954882741302
0	24464	463.910494336006	1.083456993508
0	24627	468.052971228106	2.574901349455
0	24917	473.107885780197	0.508466570197
0	25033	475.257649711023	1.70386657203
0	25079	475.706719721895	0.015488135024
0	25147	476.794521086357	0.015488135024
0	25258	479.506442563051	1.822179559879
0	25404	482.476348584767	0.446187899752
0	25481	483.671013390082	0.500608479513
0	25646	486.329858787378	0.015488135024
0	25736	488.144836037708	0.420523828781
0	26034	492.710189824544	2.315274855104
0	26071	493.18427970125	0.015488135024
0	26268	497.456199588266	2.180619214642
0	26434	499.66882984281	0.015488135024
0	26461	500.135653911779	0.015488135024
0	26589	503.305871870307	2.30882673981
0	26834	507.915726898891	2.614132150616
0	26987	509.999663635521	0.46543388921
0	27060	512.46961992287	0.931815977444
0	27149	513.631901512828	0.015488135024
0	27376	518.452887036787	2.639966424745
0	27485	520.699524184305	1.344052270524
0	27689	525.428782484233	2.481901709531
0	27823	527.016772880985	0.015488135024
0	27982	530.795670861937	3.349463875407
0	28096	532.452165982736	0.015488135024
0	28222	534.966133207288	1.85164647913
0	28293	536.303182930066	0.466158152513
0	28459	539.350847595024	2.155095429816
0	28657	543.542929344582	2.353982316192
0	28734	544.657346464548	0.440854857933
0	28829	547.429134106687	1.49453530961
0	29017	551.234996917001	1.790282619677
0	29048	551.939023990949	0.015488135024
0	29158	553.796985588807	0.015488135024
0	29250	555.640948275214	0.947216699344
0	29305	556.561000651209	0.015488135024
0	29380	557.715607731017	0.015488135024
0	29486	559.299194931203	0.015488135024
0	29674	563.608149668669	3.603149614272
0	29829	566.588253073455	0.015488135024
0	29973	570.010197558679	1.821014278595
0	30130	572.687279445768	0.015488135024
0	30252	574.744988485179	0.015488135024
0	30385	577.782492133489	2.471795396929
0	30678	583.18045791933	3.177486808626
0	30751	585.751381911775	2.108019130619
0	30866	586.792328867567	0.015488135024
0	30889	586.906843358161	0.015488135024
0	31393	594.954906032905	0.447587526475
0	31447	595.385683756132	0.015488135024
0	31501	596.701666895194	0.46463165579
0	31801	602.379219249616	0.906997820132
0	31913	604.11253383272	0.015488135024
0	31994	606.571978440906	0.434102259042
0	32210	610.614540482402	2.356953575566
0	32254	611.280824323147	0.015488135024
0	32366	612.632401494134	0.435279866263
0	32487	615.928954337674	2.374460253431
0	32577	617.073282632709	0.015488135024
0	32714	619.882202565318	0.494644541754
0	32929	623.729209932497	0.454604361697
0	32998	625.069354276361	0.872834366656
0	33071	625.943826874244	0.015488135024
0	33178	627.92760865725	0.446617896693
0	33254	629.344650552048	0.970818268744
0	33328	630.705687759399	0.497517402565
0	33389	631.591717940793	0.015488135024
0	33425	632.032263581773	0.015488135024
0	33554	634.469019476539	0.015488135024
0	33742	637.592819500267	0.925439477294
0	33984	643.01237809679	1.952040349545
0	34058	644.129079046265	0.015488135024
0	34234	647.997230087018	1.813480660299
0	34627	654.915412113293	1.756104317381
0	34682	655.614541406278	0.015488135024
0	34938	660.34271049799	2.19991466948
0	34989	660.983487105468	0.015488135024
0	35072	661.891713320161	0.015488135024
0	35187	664.79163544047	2.237760481965
0	35286	666.672837262969	0.512949498208
0	35411	669.229417886049	1.864069265759
0	35478	670.326897115471	0.015488135024
0	35754	676.483203947823	4.021658227642
0	35823	677.609843543685	0.015488135024
0	35917	678.703738578466	0.015488135024
0	35964	679.181513936247	0.015488135024
0	36162	682.589399815969	0.015488135024
0	36352	686.079223913298	0.867412383507
0	36667	691.425737186527	1.860623545792
0	36944	697.133298185995	3.59428440249
0	37113	700.884348399017	2.610414767316
0	37229	702.840357979737	0.015488135024
0	37426	706.993269866745	1.348613155218
0	37490	707.897175592727	0.015488135024
0	37636	710.829252904222	0.910484618952
0	37694	712.151793174413	0.90237717971
0	37887	714.628669264485	0.015488135024
0	37983	716.43816452658	0.47139566343
0	38050	717.338598843786	0.015488135024
0	38337	723.135116929762	0.480850764994
0	38397	723.868263566595	0.015488135024
0	38463	724.97456469624	0.015488135024
0	38566	727.303947239611	0.015488135024
0	38686	730.327378699968	2.318786274088
0	38737	731.047351871121	0.015488135024
0	38831	732.220754403324	0.015488135024
0	39001	735.69072266632	0.885343750452
0	39042	736.183399150697	0.015488135024
0	39230	740.150113490951	1.898791826496
0	39359	742.406349258306	0.473861108442
0	39497	745.074645054722	0.015488135024
0	39644	747.81468322001	0.431970531169
0	39789	750.7803708529	1.321310822273
0	39972	755.30838743508	0.932589756465
0	40060	756.677784437843	0.015488135024
0	40189	760.209279533148	1.292610875636
0	40290	761.742812226725	0.437115506713
0	40464	766.18995985454	3.782638532691
0	40616	769.533152612651	1.325846179606
0	40673	770.004206254873	0.015488135024
0	40933	774.083421717054	0.015488135024
0	41054	777.439006716015	2.205502826927
0	41227	779.844407818436	0.015488135024
0	41321	782.31459974972	1.672270711257
1	77	0.867619522127	25
1	312	5.466776986818	22
1	506	9.511202585094	13
1	702	13.370440217557	15
1	850	15.560010648272	9
1	932	17.106301866799	5
1	1038	18.940833247978	4
1	1155	21.616602998082	17
1	1224	22.943812094718	3
1	1286	24.033397701509	6
1	1386	26.480800766406	13
1	1616	30.877751269736	35
1	1749	33.415642859474	14
1	1794	34.394377528124	6
1	1947	36.595241054317	3
1	2089	40.079663327388	12
1	2242	43.33903807037	11
1	2506	48.198426637382	16
1	2630	50.510181866136	4
1	2727	53.231369056594	9
1	3013	58.475109587609	8
1	3179	62.150414472205	11
1	3218	63.047130210203	6
1	3590	70.402983058454	19
1	3770	73.928527641252	9
1	3899	76.002391091226	3
1	4015	77.897990149545	7
1	4274	82.85648001482	13
1	4389	84.238400331894	4
1	4499	86.260297614412	14
1	4526	86.688916726977	3
1	4579	88.099552417954	7
1	4654	89.394795092977	3
1	4814	93.065781865545	18
1	4964	95.485681942481	3
1	5320	103.064894851161	54
1	5533	107.112446682966	15
1	5723	111.478176216021	8
1	5838	113.053813175034	4
1	6007	116.444106968686	14
1	6214	120.23685820935	13
1	6318	121.117661065901	9
1	6383	122.013306438147	9
1	6479	124.225458154118	11
1	6712	129.495212124385	11
1	6828	131.481375095149	5
1	6905	133.086531308218	4
1	6951	133.989339047808	5
1	7058	135.540745146222	8
1	7308	140.294639294073	5
1	7387	141.893561462179	12
1	7740	148.007934589333	27
1	7924	151.836558784224	18
1	8132	156.558377172064	16
1	8243	158.178654479923	3
1	8389	160.958212415063	10
1	8738	167.049234064244	25
1	8894	169.939426497741	7
1	8958	171.086501426938	3
1	9028	172.533233575934	3
1	9091	173.298516372901	3
1	9194	175.915092815022	8
1	9287	177.078482602195	4
1	9351	177.776875870103	4
1	9445	179.527426755221	7
1	9675	184.613774028125	24
1	9855	188.534864085469	15
1	9922	189.451383169869	4
1	10040	192.194323206512	9
1	10065	192.63903946479	3
1	10156	194.436286244154	4
1	10240	196.384746342537	9
1	10286	197.285636833114	4
1	10449	200.998243481859	19
1	10633	204.113592747387	11
1	10853	208.913841243698	15
1	11333	217.562994575795	7
1	11514	222.081665168671	12
1	11723	225.966466838843	14
1	11897	229.965194134732	13
1	12034	232.428242528828	3
1	12324	239.023131429586	11
1	12455	241.072884657115	6
1	12538	243.675171338055	11
1	12616	244.77712471392	3
1	12724	246.683241053201	8
1	12808	247.172419749942	4
1	12960	250.518064813888	11
1	13090	252.455440375772	3
1	13222	255.168871086342	13
1	13284	255.603994780612	4
1	13322	256.036011831141	4
1	13491	259.615686987208	16
1	13669	262.50455494556	5
1	13734	263.651237001845	4
1	13833	265.371612143266	3
1	13975	267.910785731373	3
1	14111	271.542730344981	18
1	14222	274.061603374408	9
1	14301	274.961347326189	8
1	14371	275.473957544422	4
1	14405	275.943855553211	4
1	14458	276.883017057203	3
1	14685	281.458977124389	37
1	14916	286.78782707467	36
1	15038	289.008065734842	4
1	15103	289.890144555171	4
1	15341	295.188322609865	30
1	15438	296.535625533415	3
1	15597	299.929707174729	27
1	15827	304.170429885953	3
1	15912	306.22519435815	5
1	15985	307.618138168498	14
1	16034	308.45942654085	3
1	16293	312.924369934488	4
1	16344	314.04551505026	7
1	16509	317.981756940742	25
1	16632	319.818381071351	3
1	16717	321.644380515005	7
1	17037	327.443962185563	9
1	17158	329.262564628503	8
1	17218	329.730726927615	3
1	17307	332.401062746725	13
1	17617	336.714984585949	19
1	17722	338.344789595972	3
1	17870	340.989270269782	20
1	17946	342.337793140701	3
1	18387	350.359581883447	9
1	18438	351.272015902003	3
1	18541	353.529294561258	14
1	18591	354.161635363581	3
1	18636	355.294647770775	6
1	18725	356.936311942438	9
1	18903	361.213674535166	18
1	18987	363.020292338317	3
1	19079	364.827570228269	11
1	19150	366.325828391703	6
1	19235	367.918612332611	3
1	19340	370.168346333382	5
1	19407	371.507578251497	7
1	19526	373.251754005252	3
1	19671	376.650780648381	22
1	19818	378.712477265327	3
1	19980	381.450685172998	3
1	20031	382.206663191998	3
1	20192	385.946093390811	20
1	20369	388.628170149948	3
1	20471	390.843833209799	9
1	20675	394.690621160862	18
1	20876	397.088195451136	9
1	20971	399.592152108415	10
1	21188	403.675239939233	17
1	21290	405.510577570732	3
1	21417	407.521766955167	6
1	21548	410.225034213346	23
1	21648	412.191092823389	3
1	21814	415.733231387126	3
1	21957	418.224423095155	4
1	21999	418.680642918163	4
1	22207	422.524527663397	24
1	22267	423.148049736719	4
1	22298	423.598793743551	3
1	22433	426.33919810022	6
1	22525	427.860174933953	3
1	22591	429.154917727883	3
1	22664	429.855944175363	5
1	22873	434.342762635392	12
1	22964	435.339165381437	6
1	23070	436.474027964173	4
1	23174	438.973652867337	10
1	23300	440.530368843763	10
1	23468	443.839078469211	3
1	23557	445.786875909426	3
1	23643	447.503062003603	12
1	23729	449.568671083646	10
1	23764	450.132809172724	3
1	23871	452.200475495824	3
1	23977	453.994116436742	15
1	24247	459.682828198952	8
1	24300	460.584280521841	6
1	24395	462.431441968843	7
1	24464	463.910494336006	8
1	24627	468.052971228106	14
1	24917	473.107885780197	4
1	25033	475.257649711023	20
1	25079	475.706719721895	8
1	25147	476.794521086357	3
1	25258	479.506442563051	12
1	25404	482.476348584767	6
1	25481	483.671013390082	9
1	25646	486.329858787378	3
1	25736	488.144836037708	5
1	26034	492.710189824544	23
1	26071	493.18427970125	4
1	26268	497.456199588266	16
1	26434	499.66882984281	4
1	26461	500.135653911779	4
1	26589	503.305871870307	12
1	26834	507.915726898891	25
1	26987	509.999663635521	6
1	27060	512.46961992287	8
1	27149	513.631901512828	4
1	27376	518.452887036787	30
1	27485	520.699524184305	15
1	27689	525.428782484233	13
1	27823	527.016772880985	3
1	27982	530.795670861937	23
1	28096	532.452165982736	3
1	28222	534.966133207288	16
1	28293	536.303182930066	8
1	28459	539.350847595024	20
1	28657	543.542929344582	12
1	28734	544.657346464548	10
1	28829	547.429134106687	5
1	29017	551.234996917001	9
1	29048	551.939023990949	3
1	29158	553.796985588807	3
1	29250	555.640948275214	6
1	29305	556.561000651209	4
1	29380	557.715607731017	3
1	29486	559.299194931203	3
1	29674	563.608149668669	24
1	29829	566.588253073455	3
1	29973	570.010197558679	17
1	30130	572.687279445768	3
1	30252	574.744988485179	4
1	30385	577.782492133489	16
1	30678	583.18045791933	28
1	30751	585.751381911775	6
1	30866	586.792328867567	4
1	30889	586.906843358161	5
1	31393	594.954906032905	11
1	31447	595.385683756132	4
1	31501	596.701666895194	5
1	31801	602.379219249616	9
1	31913	604.11253383272	3
1	31994	606.571978440906	6
1	32210	610.614540482402	10
1	32254	611.280824323147	4
1	32366	612.632401494134	7
1	32487	615.928954337674	13
1	32577	617.073282632709	3
1	32714	619.882202565318	5
1	32929	623.729209932497	5
1	32998	625.069354276361	9
1	33071	625.943826874244	4
1	33178	627.92760865725	5
1	33254	629.344650552048	6
1	33328	630.705687759399	7
1	33389	631.591717940793	3
1	33425	632.032263581773	3
1	33554	634.469019476539	4
1	33742	637.592819500267	6
1	33984	643.01237809679	13
1	34058	644.129079046265	3
1	34234	647.997230087018	15
1	34627	654.915412113293	19
1	34682	655.614541406278	4
1	34938	660.34271049799	14
1	34989	660.983487105468	3
1	35072	661.891713320161	3
1	35187	664.79163544047	16
1	35286	666.672837262969	8
1	35411	669.229417886049	15
1	35478	670.326897115471	3
1	35754	676.483203947823	12
1	35823	677.609843543685	4
1	35917	678.703738578466	3
1	35964	679.181513936247	3
1	36162	682.589399815969	3
1	36352	686.079223913298	7
1	36667	691.425737186527	19
1	36944	697.133298185995	29
1	37113	700.884348399017	18
1	37229	702.840357979737	3
1	37426	706.993269866745	10
1	37490	707.897175592727	3
1	37636	710.829252904222	12
1	37694	712.151793174413	7
1	37887	714.628669264485	4
1	37983	716.43816452658	5
1	38050	717.338598843786	3
1	38337	723.135116929762	6
1	38397	723.868263566595	3
1	38463	724.97456469624	3
1	38566	727.303947239611	3
1	38686	730.327378699968	16
1	38737	731.047351871121	4
1	38831	732.220754403324	4
1	39001	735.69072266632	7
1	39042	736.183399150697	3
1	39230	740.150113490951	14
1	39359	742.406349258306	6
1	39497	745.074645054722	3
1	39644	747.81468322001	5
1	39789	750.7803708529	16
1	39972	755.30838743508	5
1	40060	756.677784437843	4
1	40189	760.209279533148	11
1	40290	761.742812226725	7
1	40464	766.18995985454	27
1	40616	769.533152612651	18
1	40673	770.004206254873	4
1	40933	774.083421717054	4
1	41054	777.439006716015	10
1	41227	779.844407818436	3
1	41321	782.31459974972	11
2	105	1.079919817291	0.561952540096
2	331	5.505497324378	2.877279015142
2	360	5.737390573085	0.046464405072
2	545	9.931369466934	2.061952540096
2	587	10.289263733994	0.030976270048
2	750	13.870179999612	1.57744067512
2	809	14.825927548655	0.530976270048
2	994	17.856723584581	2.592928810144
2	1411	26.711247273875	7.695422474095
2	1646	31.177845638235	2.108416945168
2	2108	40.309986393707	7.960752857866
2	2118	40.353203362144	0.030976270048
2	2302	44.032932544441	3.561952540096
2	2341	44.532417048458	0.111921548531
2	2361	44.727569148099	0.046464405072
2	2585	49.458044492821	3.026761994609
2	2757	53.478161597586	1.534174621176
2	2952	57.51093557108	2.07744067512
2	3043	58.965360608187	1.439677351281
2	3096	59.701700193636	0.269407443392
2	3256	63.58893246631	3.092928810144
2	3384	66.039977897305	0.530976270048
2	3701	71.625866870049	4.123905080192
2	3802	74.263894333693	2.561952540096
2	4067	78.651471495766	2.677734891009
2	4300	83.168737099044	1.046464405072
2	4831	93.300674955091	10.016445649731
2	5338	103.134591458769	9.259733878729
2	5402	104.125607503533	0.546464405072
2	5569	107.663911257375	2.092928810144
2	5658	109.021261009703	0.546464405072
2	5769	112.186823956908	2.546464405072
2	5788	112.449326328389	0.046464405072
2	5806	112.564776659887	0.046464405072
2	5880	113.359796146127	0.676286499246
2	6053	116.699704101311	2.57744067512
2	6253	120.628717322102	3.07744067512
2	6336	121.146768536423	0.170369485264
2	6542	124.834383943661	3.496661348707
2	6738	129.795271298331	1.046464405072
2	6801	130.659891495406	0.466212310743
2	6971	134.237745192122	2.961237173615
2	7190	137.41854080216	0.865589155226
2	7285	139.460916271959	1.056115765406
2	7455	142.870113937905	2.061952540096
2	7493	143.233335870686	0.202769654759
2	7590	145.063356206935	1.476815178375
2	7948	152.091207235756	5.81043759748
2	8191	157.340194203464	5.089521376435
2	8194	157.359089772197	5.108416945168
2	8302	158.55613890176	0.661932031371
2	8494	162.657744075821	3.319062806734
2	8530	163.101797022924	0.198024009519
2	8582	164.081729354371	0.438236968577
2	8772	167.339415666191	1.57744067512
2	9135	174.185432988775	6.173181206068
2	9218	176.279950574866	1.061952540096
2	9374	177.857924959757	0.046464405072
2	9519	180.688581481607	1.030976270048
2	9732	185.302515669655	3.668273676747
2	10270	196.910477006425	11.170369485264
2	10495	201.294856235295	1.061887655858
2	10711	205.274703057961	2.095570234186
2	10740	205.878874863958	0.515488135024
2	10908	209.444277307874	3.092928810144
2	10961	210.129867339804	0.046464405072
2	11125	213.153142308755	2.022853846073
2	11128	213.16126473273	2.030976270048
2	11186	214.175795206775	0.046464405072
2	11222	214.613316186011	0.046464405072
2	11362	218.036652967684	3.046464405072
2	11533	222.263037067526	2.592928810144
2	11592	222.998698853288	0.625682374599
2	11779	226.893818918503	2.843869934897
2	12000	231.586588398399	4.043872349242
2	12163	235.161186242119	1.030976270048
2	12353	239.434717878289	3.07744067512
2	12398	239.779023204687	0.138000193791
2	12680	246.067684580146	2.546464405072
2	12766	246.948196003318	0.725822294474
2	12784	247.12153481397	0.030976270048
2	12827	247.271705103246	0.046464405072
2	13034	251.488977921852	3.345244989675
2	13239	255.207591423902	3.595969590125
2	13346	256.136684708797	0.555011123079
2	13512	259.685383594816	2.875014617354
2	13546	259.873374386846	0.030976270048
2	13751	263.933221109521	2.960177896264
2	13774	264.185017372684	0.046464405072
2	13898	266.352745513639	1.421405437204
2	14327	275.228081725862	8.319211062032
2	14380	275.497189746958	0.228182483109
2	14697	281.497697461949	5.196240779599
2	15019	288.828471093107	3.481470248876
2	15373	295.359419451012	2.561952540096
2	15416	296.098334557987	0.046464405072
2	15622	300.073919339966	3.371867224382
2	15647	300.241202241379	0.046464405072
2	16133	310.28226448253	6.135531005566
2	16157	310.526163491221	0.045270150146
2	16251	312.254889631744	0.674782765038
2	16529	318.264903163891	5.37832399265
2	16556	318.640480095575	0.046464405072
2	16764	322.34184942103	3.67387165792
2	16804	322.801634364109	0.046464405072
2	16818	322.856401656678	0.046464405072
2	16838	323.06650035168	0.046464405072
2	17070	327.957354391916	3.263782611127
2	17117	328.685657783961	0.046464405072
2	17199	329.486370177093	0.561952540096
2	17337	332.712511341797	1.592928810144
2	17657	337.310322837687	0.046464405072
2	17906	341.277297144904	3.545265464672
2	18057	344.376982480133	1.701291487462
2	18084	344.668079797104	0.046464405072
2	18160	345.744387082247	0.046464405072
2	18215	346.62638988256	0.030976270048
2	18297	348.40430684307	1.587371568895
2	18551	353.568014898818	3.794952703696
2	18562	353.61655373776	0.030976270048
2	18682	356.065170737757	0.046464405072
2	19088	364.850802430805	7.893820363609
2	19126	365.519995109755	0.129861857932
2	19222	367.689506558408	1.23464700393
2	19300	369.110997777927	2.656138223449
2	19426	371.68216105019	1.046464405072
2	19469	372.220548397738	0.046464405072
2	19699	377.051336071976	4.092928810144
2	19904	380.187170409478	1.057269994717
2	20232	386.618968489324	6.328342016829
2	20288	387.397076822161	0.046464405072
2	20356	388.272623633632	0.530976270048
2	20521	391.354630885872	2.372632813149
2	21010	400.136808482242	7.8872033756
2	21048	400.554858408906	0.119511742121
2	21226	404.323014282727	3.07744067512
2	21720	413.498139790798	7.693567247925
2	21888	416.942150753868	1.479478763794
2	21932	417.665188293363	0.087703043114
2	22225	422.578736135981	2.820809833035
2	22247	422.745707029241	0.046464405072
2	22277	423.186770074279	0.48752745011
2	22456	426.594808769674	2.412307369197
2	22648	429.689017643918	2.830075118446
2	22674	429.879176377899	3.020233852427
2	22786	432.584206894588	1.071503816669
2	22888	434.381482972952	1.763371840586
2	22995	435.377760610416	0.07744067512
2	23051	436.455886557772	0.530976270048
2	23245	439.961305780357	3.060021206848
2	23248	439.978725248629	3.07744067512
2	23417	442.817648339771	1.650463232017
2	23809	450.86561734813	7.81521142918
2	24117	456.803335178829	5.879418278118
2	24326	460.847603005311	4.026718659727
2	24339	460.966401590612	0.046464405072
2	24537	465.099743765896	3.687960754364
2	24709	469.247824425136	0.668463227983
2	24797	470.344557992452	0.030976270048
2	24820	470.741863412824	0.046464405072
2	25110	476.11478779134	3.139393215216
2	25510	483.95889595741	7.52557812719
2	25625	485.678040232256	0.046464405072
2	25783	488.650477206953	1.913842495491
2	25819	489.280428122739	0.081561345273
2	25830	489.410985710245	0.046464405072
2	26320	497.972994754946	5.185382666404
2	26394	499.131596048427	0.707268308539
2	26405	499.198145542146	0.046464405072
2	26633	503.855131511558	4.061952540096
2	26671	504.450862906308	0.030976270048
2	26696	504.874579072395	0.046464405072
2	26855	507.988250965165	2.046464405072
2	26892	508.32262309578	0.046464405072
2	27507	520.769220791913	11.477000198237
2	27556	521.6979077551	0.046464405072
2	27600	522.508220916116	0.157351139024
2	27743	525.662449827709	3.046464405072
2	28038	531.633680466844	4.092928810144
2	28240	535.222094794476	3.290101763192
2	28519	539.930922941966	4.623905080192
2	28747	544.696066802108	3.731708302598
2	28874	547.929477763406	0.644412017824
2	29079	552.186088603815	2.66473381862
2	29098	552.381000901277	0.046464405072
2	29315	556.584232853745	3.737506410382
2	29350	556.889321444297	0.046464405072
2	29423	558.228157116661	0.50711929786
2	29775	565.491115946269	5.579943408767
2	30008	570.279607100886	2.284231839756
2	30063	571.104816299778	0.571609875178
2	30200	573.970334249302	0.046464405072
2	30237	574.635330352145	0.515488135024
2	30433	578.072686662624	2.695046521817
2	30490	578.91957945812	0.546464405072
2	30794	586.210603857376	6.362847160274
2	30808	586.305426101847	0.046464405072
2	31083	590.288726166755	1.244247802976
2	31135	591.00490457108	0.046464405072
2	31146	591.107786153452	0.046464405072
2	31191	591.639901647041	0.08774438507
2	31215	591.878367168688	0.046464405072
2	31251	592.39931589095	0.046464405072
2	31426	595.086555180609	2.10718605947
2	31596	598.130735066709	2.377178859959
2	31620	598.334736366711	0.110987184099
2	31659	598.553198019986	0.046464405072
2	31844	602.767453193952	2.57744067512
2	32021	606.878131746173	4.108416945168
2	32116	607.788817415699	0.546464405072
2	32127	607.873393924352	0.046464405072
2	32273	611.492858084708	3.061952540096
2	32672	618.973432618941	7.367716466773
2	32809	621.308845334675	2.320399316406
2	33033	625.182243058579	1.089776806435
2	33107	626.128235423271	0.046464405072
2	33344	630.966914574362	3.386522902281
2	33590	634.728472051289	1.236304200031
2	33603	634.859498559	0.046464405072
2	33800	638.538751095367	3.152716018877
2	34005	643.236548606273	3.613831391633
2	34253	648.066926694626	3.088287143006
2	34291	648.505652971126	0.046464405072
2	34310	648.681402052074	0.054908901228
2	34384	649.911143833564	0.198327930967
2	34642	654.954132450853	4.757616585235
2	34662	655.201759181545	0.030976270048
2	34747	656.689384703617	1.030976270048
2	34777	656.964672464097	0.030976270048
2	34798	657.208350075863	0.11173692505
2	34958	660.399590109915	2.608416945168
2	35019	661.211851249801	0.030976270048
2	35055	661.494048723424	0.238339034428
2	35554	671.759813448617	9.986341367958
2	35627	673.436643915642	0.030976270048
2	35654	673.822439645485	0.046464405072
2	35673	673.995927208176	0.116201839241
2	35837	677.648563881245	3.595181108586
2	35877	678.111378923609	0.254558548672
2	36073	680.868056146071	0.938846417108
2	36283	684.476620509586	2.546464405072
2	36450	687.726309631348	3.061952540096
2	36479	688.182172412115	0.046464405072
2	36521	688.390654876876	0.094847690232
2	36697	691.693918244385	3.157512736398
2	36711	691.820734968501	0.046464405072
2	36789	693.064052075742	1.046464405072
2	37209	702.455123954851	6.947379459516
2	37311	704.051450431794	0.699009344018
2	37471	707.515722797984	2.151676378916
2	37498	707.920407795263	2.556361376195
2	37807	713.499089773644	3.099069470112
2	37818	713.580799739107	0.046464405072
2	38028	716.921751305885	2.929452580247
2	38098	718.051454722384	0.546464405072
2	38144	719.015853551435	0.170508825487
2	38249	721.193056043294	1.234584057374
2	38377	723.411254036085	1.25843040893
2	38436	724.3658743044	0.494021253019
2	38551	726.867980408796	0.728519099472
2	38771	731.329569738273	4.157858624932
2	38851	732.587292153243	1.061952540096
2	38944	734.335553454176	1.001595672973
2	38948	734.364934051251	1.030976270048
2	39100	737.168891638365	2.592928810144
2	39127	737.45243168092	0.030976270048
2	39316	741.41518572502	3.07744067512
2	39434	743.806421371549	2.03859106355
2	39570	746.288367135474	2.479311151207
2	39818	751.03355878671	4.659382676982
2	40010	755.829219127943	0.377332653629
2	40208	760.3860491058	3.061952540096
2	40627	769.571872950211	8.281181841757
2	40889	773.453552146438	1.714147267193
2	41066	777.477727053575	3.162498595406
2	41130	778.33544091798	0.171426481358
2	41166	778.918447420597	0.546464405072
2	41210	779.490527959318	0.515488135024
3	135	1.37979576532	1.061952540096
3	146	1.499557312944	0.030976270048
3	350	5.712648977703	4.030976270048
3	371	5.821769286741	0.046464405072
3	534	9.765328622229	3.051205471881
3	579	10.270784777765	0.046464405072
3	731	13.674642891301	2.046464405072
3	992	17.841235449557	2.333927789711
3	1412	26.711247273875	7.800515580059
3	1634	31.112642160057	4.374952933628
3	1663	31.529050656036	0.030976270048
3	1876	35.605371794509	3.365792203119
3	1894	35.81145742832	0.069943133272
3	2107	40.309986393707	4.189221118894
3	2287	43.863716030927	3.275858446072
3	2371	44.77014177237	0.546464405072
3	2739	53.40058700465	7.623905080192
3	2863	55.443141558074	0.546464405072
3	3053	59.106867647096	1.046464405072
3	3345	65.330611980644	4.456011775835
3	3393	66.090693353168	0.030976270048
3	3451	67.067191501875	0.561952540096
3	3652	71.158922101922	3.548428556045
3	3676	71.381418676104	0.046464405072
3	3821	74.477334757111	2.030976270048
3	3871	75.41974882035	0.546464405072
3	4098	79.056458746608	1.061952540096
3	4126	79.479316446309	0.030976270048
3	4169	79.940150887568	0.046464405072
3	4191	80.154359357758	0.030976270048
3	4349	83.779895230811	3.567715575349
3	4417	84.497051859535	0.608416945168
3	4830	93.300674955091	8.407714618977
3	4908	94.660112786304	1.108590648419
3	4918	94.841084095208	0.030976270048
3	4945	95.08753777422	0.105863517648
3	5343	103.24936127141	8.139393215216
3	5542	107.135678885502	3.185393627476
3	5630	108.512898904547	0.046464405072
3	5820	112.642642632895	0.615016986604
3	5878	113.344308011103	1.316682364812
3	5891	113.429753641835	0.046464405072
3	6072	116.986382554304	2.061952540096
3	6119	117.628631815391	0.030976270048
3	6248	120.531176078031	0.731107329692
3	6544	124.849872078685	3.962428791314
3	6590	125.662826855366	0.222225396192
3	6774	130.230766295474	1.863371061164
3	6982	134.274429028734	3.07744067512
3	7021	134.927217042389	0.640298033969
3	7099	136.003292271266	0.546464405072
3	7111	136.064603909159	0.030976270048
3	7188	137.403052667136	1.052660975724
3	7436	142.741581135102	2.061952540096
3	7751	148.224168022606	5.123905080192
3	8187	157.32470606844	8.220162274632
3	8214	157.617427975054	0.046464405072
3	8438	161.699450493751	3.908931023445
3	8532	163.117285157948	1.176087998723
3	8593	164.152322285327	0.046464405072
3	8820	168.035665306355	3.609074371806
3	9070	173.035745796358	4.973186381711
3	9235	176.362147010698	3.092928810144
3	9250	176.532554482078	0.046464405072
3	9375	177.857924959757	0.527712690682
3	9376	177.861188539123	0.530976270048
3	9395	178.211400872474	0.046464405072
3	9538	181.063534546072	2.561952540096
3	9890	188.842164377871	3.622697816478
3	10265	196.838876930987	6.488921308946
3	10303	197.35962061382	0.030976270048
3	10320	197.533976691841	0.046464405072
3	10490	201.279368100271	3.030976270048
3	10536	201.922046726571	0.046464405072
3	10680	204.858936932032	2.386260544802
3	10878	209.119281002316	3.57744067512
3	10917	209.486107731071	0.030976270048
3	11095	212.726328379774	2.336269766984
3	11165	213.872186396055	0.030976270048
3	11407	218.739949898845	3.046464405072
3	11594	223.014186988312	3.169424206015
3	11620	223.227465031302	0.167215949191
3	11788	226.931351435586	2.046464405072
3	11998	231.571100263375	3.698771918978
3	12146	234.860831634002	1.546464405072
3	12203	235.755897996177	0.372624687806
3	12396	239.763535069663	2.819634260887
3	12565	243.964362509507	4.061952540096
3	12764	246.932707868294	2.10395959517
3	12809	247.173528942269	0.046464405072
3	12856	247.640303256561	0.266222427372
3	13055	251.737266700953	3.07744067512
3	13141	253.268212725828	1.277752862311
3	13254	255.395094350118	0.530976270048
3	13303	255.627226983148	0.214443031554
3	13344	256.121196573773	0.708412622179
3	13509	259.669895459792	3.447353315704
3	13524	259.739975081565	0.046464405072
3	13550	259.88886252187	0.032389651018
3	13643	261.549328887465	1.212598304735
3	13896	266.337257378615	3.387387529884
3	13961	267.627351761267	0.669333016833
3	13994	268.178252201555	1.220233457121
3	14150	272.084996870312	1.87894688667
3	14261	274.507163224412	1.592928810144
3	14367	275.467380327904	0.726676160428
3	14993	288.343928455892	11.085759056218
3	15140	290.510043290343	0.046464405072
3	15364	295.279674861901	3.592928810144
3	15624	300.08940747499	1.608416945168
3	15790	303.324377975761	2.265473432677
3	16131	310.266776347506	6.232288065084
3	16233	312.059597809866	0.484183181472
3	16561	318.655968230599	3.116542005078
3	16763	322.34184942103	3.547068844929
3	16864	323.609907617511	0.046464405072
3	16928	324.78546989536	0.546464405072
3	17080	327.991761049893	0.546464405072
3	17128	328.827535118467	0.546464405072
3	17179	329.363237506159	1.082166792764
3	17364	333.213556817747	3.046464405072
3	17416	333.915509060737	0.561952540096
3	17701	337.940297402142	3.324943771176
3	17903	341.26180900988	3.24942208142
3	18105	345.173936401726	2.061952540096
3	18124	345.344563662581	0.046464405072
3	18149	345.680752355541	0.103776470837
3	18771	357.705871218215	10.65488135024
3	19087	364.850802430805	6.642675821226
3	19302	369.126485912951	1.188810161934
3	19483	372.559156831732	3.061952540096
3	19724	377.16417105197	4.108416945168
3	19757	377.760342473657	0.046464405072
3	19776	377.944713406207	0.046464405072
3	20231	386.618968489324	8.47275461848
3	20252	386.997004132947	0.046464405072
3	20329	387.916099563063	0.030976270048
3	20353	388.198237813206	0.05112004775
3	20522	391.354630885872	2.380602773861
3	20536	391.425168214177	0.046464405072
3	20574	392.097616169898	0.030976270048
3	21007	400.119760879263	7.449155915696
3	21046	400.539370273882	0.162118536415
3	21264	404.89260843753	4.268226401406
3	21719	413.498139790798	8.051694268778
3	21752	413.986351200989	0.320560479706
3	21930	417.649700158339	1.999492461716
3	22228	422.594224271005	4.245555592738
3	22370	425.019794336466	2.087770007935
3	22466	426.712309833807	1.546464405072
3	22646	429.673529508894	2.900597332991
3	22675	429.879176377899	3.106244201996
3	22965	435.342322322695	2.697467739431
3	23005	435.39324874544	0.047712947121
3	23201	439.209606452058	0.561952540096
3	23321	440.577862965803	0.108416945168
3	23506	444.528832727682	2.240150882543
3	23808	450.86561734813	4.219142193913
3	24021	454.922652558105	3.497626866686
3	24060	455.615341485295	0.030976270048
3	24327	460.847603005311	3.78049104995
3	24707	469.232336290112	7.764021992581
3	24745	469.748767768583	0.369759409813
3	24762	469.948352164802	0.030976270048
3	24773	470.092642338553	0.046464405072
3	25090	475.729951924431	5.128349367819
3	25296	480.216703836402	3.836478119267
3	25512	483.974384092434	3.328983751464
3	25548	484.760778954126	0.046464405072
3	25593	485.359810211149	0.046464405072
3	25781	488.634989071929	2.073742876817
3	26111	493.69292935566	3.048952611632
3	26318	497.957506619922	3.439207863626
3	26392	499.116107913403	0.92461103917
3	26613	503.582911638193	3.116515054139
3	26881	508.227897054824	3.138608711529
3	26929	508.759022678336	0.046464405072
3	27094	512.7122303334	3.592928810144
3	27130	513.231124325956	0.030976270048
3	27157	513.655133715364	0.454985659456
3	27505	520.753732656889	7.075917898731
3	27713	525.602527781567	2.57744067512
3	27781	526.410516588166	0.046464405072
3	27803	526.56365429246	0.046464405072
3	28000	530.986190067585	4.092928810144
3	28055	531.783633280687	0.164793714263
3	28474	539.389567932584	7.053948467549
3	28497	539.624692414021	0.046464405072
3	28557	540.49963975094	0.264180565589
3	28872	547.913989628382	6.95747238593
3	28891	548.185421681922	0.030976270048
3	28916	548.695817679473	0.030976270048
3	29314	556.584232853745	3.535419922448
3	29319	556.610765471393	3.561952540096
3	29340	556.847518149153	0.046464405072
3	29434	558.295548169452	0.546464405072
3	29445	558.371739001773	0.046464405072
3	29772	565.475627811245	6.520651491031
3	29808	566.124669271034	0.530976270048
3	30052	570.937050146364	3.783444327048
3	30189	573.854880774079	0.814196696356
3	30428	578.0571985276	3.721557220218
3	30691	583.21917825689	4.429236243993
3	30796	586.2260919924	2.752888515335
3	30917	587.215369781655	0.73232202536
3	30950	587.640767645873	0.206748331368
3	31079	590.273238031731	2.536442988822
3	31114	590.89968079357	0.046464405072
3	31256	592.414804025974	0.048855170805
3	31424	595.071067045585	2.03358632537
3	31577	597.894635197848	1.224754630844
3	31632	598.508620470172	0.546464405072
3	31831	602.658603168225	3.592928810144
3	32048	607.097990074144	2.561952540096
3	32061	607.17872096867	0.046464405072
3	32094	607.67168543027	0.046464405072
3	32501	615.967674675234	7.229011360916
3	32535	616.587934785451	0.530976270048
3	32805	621.293357199651	3.687241356344
3	32834	621.663083093918	0.046464405072
3	32868	622.186938064613	0.235984070718
3	33010	625.108074613921	2.678480749807
3	33054	625.666754923555	0.546464405072
3	33100	626.106720687938	0.046464405072
3	33426	632.038613916997	5.019275503298
3	33488	633.182658321732	1.060145043787
3	33592	634.743960186313	0.708299373783
3	33799	638.538751095367	3.010387207029
3	33840	639.328552311721	0.046464405072
3	34022	643.375398790963	2.561952540096
3	34134	645.564217796182	1.27582760645
3	34271	648.256131496022	2.57744067512
3	34382	649.89565569854	0.927663653222
3	34393	649.996268264685	0.030976270048
3	34423	650.422081429934	0.046464405072
3	34712	655.904943241541	3.092928810144
3	34959	660.399590109915	3.663371212359
3	35552	671.744325313593	10.808781897668
3	35879	678.126867058633	3.096764269957
3	35891	678.210402768465	0.046464405072
3	36071	680.852568011047	2.126675456851
3	36246	683.984966163227	2.580493418818
3	36278	684.428677670292	0.436823196874
3	36429	687.249221045461	2.203802241565
3	36512	688.342160501881	0.546464405072
3	36737	692.234325394336	2.061952540096
3	36986	697.634694140866	0.864924628724
3	37189	702.231630052767	4.413478275617
3	37308	704.03596229677	1.789307631666
3	37469	707.50023466296	0.887300770537
3	37499	707.920407795263	1.30747390284
3	37582	709.512271882883	0.428860873925
3	37754	713.071808145503	2.647444766062
3	37801	713.48360163862	0.056744248853
3	37859	714.068836565421	0.046464405072
3	38030	716.937239440909	2.07744067512
3	38077	717.824977989049	2.96517922326
3	38253	721.208544178318	0.42667257789
3	38375	723.395765901061	2.127985385313
3	38749	731.086072208681	3.543896781753
3	38750	731.088639832	3.546464405072
3	38941	734.320065319152	2.243939234069
3	39118	737.345443895776	2.707972085794
3	39305	741.339959815118	3.227578337901
3	39558	746.054786785681	1.954480559537
3	39817	751.03355878671	4.19285966941
3	40030	756.248083043363	4.092928810144
3	40251	761.088934531998	3.57744067512
3	40646	769.853530935891	7.170369485264
3	40775	772.107938538174	2.028571974647
3	40817	772.745064087314	0.046464405072
3	40850	773.173306086048	0.416448224457
3	40885	773.438064011414	0.249565318931
3	41343	782.57519557247	7.561952540096
