version 2
run General-0-20220705-21:40:37-279412
attr configname General
attr datetime 20220705-21:40:37
attr experiment General
attr inifile omnetpp.ini
attr iterationvars ""
attr iterationvarsf ""
attr measurement ""
attr network Raft
attr processid 279412
attr repetition 0
attr replication #0
attr resultdir results
attr runnumber 0
attr seedset 0
param Raft.numServers 5
param Raft.numClients 2
param Raft.client[*].numServers 5
param Raft.client[*].sendCommandTimeout 0.9s
param Raft.statsCollector.numServers 5
param Raft.server[*].numServers 5
param Raft.server[*].canFail true

vector 0 Raft.statsCollector consensusTime:vector ETV
attr interpolationmode linear
attr title "Time required to reach consensus on a new leader, since network is leaderless, vector"
attr unit s
vector 1 Raft.statsCollector consensusMessages:vector ETV
attr interpolationmode linear
attr title "Number of messages exchanged on the network to reach consensus among servers, vector"
vector 2 Raft.client[0] commandResponseTime:vector ETV
attr interpolationmode linear
attr title "Total response time of client request, vector"
attr unit s
vector 3 Raft.client[1] commandResponseTime:vector ETV
attr interpolationmode linear
attr title "Total response time of client request, vector"
attr unit s
0	77	0.867619522127	0.867619522127
0	312	5.466776986818	0.880114455453
0	506	9.511202585094	0.873222268328
0	702	13.370440217557	1.853926155138
0	850	15.560010648272	0.454756994221
0	954	17.745566589574	1.077344733666
0	1238	23.535316048277	2.589336441391
0	1375	26.366811630243	1.289074411665
0	1933	35.648365976104	0.972462558562
0	1972	36.543907546627	0.468253119128
0	2047	37.846138578634	0.015488135024
0	2460	46.505241333913	7.524215504568
0	2563	47.643488259648	0.015488135024
0	2612	48.524464955485	0.015488135024
0	2730	50.98525417515	1.338737387469
0	2775	51.619353824079	0.015488135024
0	2963	55.742874634013	2.515469854962
0	3064	57.75973304924	0.454347118295
0	3188	59.752772281036	0.015488135024
0	3325	62.70262543416	2.283241752376
0	3471	64.709356371164	0.015488135024
0	3638	68.393322005261	2.996180573137
0	3801	72.000917714423	1.764277142079
0	3882	73.556174056624	0.015488135024
0	3951	75.603457763696	1.38428808239
0	4164	80.301471465746	2.377369036762
0	4384	84.471253965358	1.842348427537
0	4518	86.442828582722	0.015488135024
0	4628	89.193021182817	2.283587308372
0	4808	92.953384360289	2.68417544242
0	4835	93.378940225315	0.015488135024
0	5064	97.827536389251	0.925420864791
0	5369	103.208385705284	0.015488135024
0	5417	104.115252439065	0.44348464613
0	5476	105.510554194375	0.473802325387
0	5875	111.867977531588	0.454282981904
0	6000	115.618646448415	3.203289723979
0	6163	119.146829896859	1.779700834142
0	6271	120.48977082446	0.015488135024
0	6447	124.376109251149	1.87205150198
0	6611	126.625066719603	1.775938093524
0	6770	130.058298617539	2.286199179575
0	6987	133.821236945382	2.116145522944
0	7182	136.24089754077	0.860853591308
0	7324	139.124246659921	0.015488135024
0	7423	140.972584473521	0.439343870759
0	7556	143.395345407724	1.904962169545
0	7587	143.844830020867	0.015488135024
0	7752	147.465756870438	1.331477771398
0	8232	155.90067002193	2.159094918626
0	8501	160.826619670492	3.154744015871
0	8821	165.293046149171	0.451226720402
0	8892	167.144976473838	1.409166369287
0	9023	169.58260547664	1.298704970492
0	9133	171.847651198914	1.368095781308
0	9177	172.537037211542	0.015488135024
0	9784	183.375170788046	1.318574778747
0	9853	184.50166570985	0.015488135024
0	10017	187.978033752391	1.292373107704
0	10231	192.730206621269	3.95393772889
0	10307	194.046990371467	0.015488135024
0	10426	196.128631660385	0.015488135024
0	10529	198.813585072618	2.246066947216
0	10756	203.346179156745	2.165684829049
0	11124	209.425940219878	1.83912405423
0	11257	211.221578128353	0.42781311304
0	11382	213.742866512508	1.759552375604
0	11558	218.043154080554	2.123219080062
0	11777	222.144336922615	2.342510612172
0	12004	226.676144050284	2.689574702135
0	12048	227.321932714796	0.015488135024
0	12281	231.894242055813	2.295784300988
0	12495	236.276710572195	2.285682540575
0	12722	241.396271108492	2.858676524795
0	12860	244.281000402171	1.35320837796
0	13036	248.386279337519	2.11110029164
0	13083	249.484075495606	0.015488135024
0	13153	249.947342803429	0.015488135024
0	13357	253.68543917441	0.923509277592
0	13538	257.745991875274	0.92574035409
0	13607	258.754287446102	0.015488135024
0	13757	262.700810263046	2.360372794187
0	14018	267.579568506676	0.90008931233
0	14072	268.035846402535	0.015488135024
0	14296	271.934498193973	2.293479898133
0	14534	276.885518333399	2.884025655947
0	14803	281.821824982209	2.155252455505
0	14990	285.713028567251	1.339487817173
0	15071	286.159700562214	0.015488135024
0	15380	292.580381023943	4.919200566792
0	15495	294.912869104352	0.455054348313
0	15553	296.317881089921	0.015488135024
0	15698	299.055773735495	0.015488135024
0	15738	300.002863578937	0.015488135024
0	15980	304.484340971869	0.015488135024
0	16031	305.208973128093	0.015488135024
0	16085	306.346235616764	0.444882972773
0	16339	311.406664132426	2.370579457752
0	16462	313.677665288929	0.465841288517
0	16620	316.436336258333	0.015488135024
0	16947	322.77890114312	3.275547293543
0	17135	326.072547761067	2.195363683488
0	17344	329.80188209438	1.766135550203
0	17671	335.926306316455	1.617685758773
0	17790	337.340360883218	0.015488135024
0	17908	340.864033968482	0.478131129967
0	18011	342.643543835152	0.015488135024
0	18096	344.593095109876	1.2788244864
0	18248	346.390398649544	0.015488135024
0	18411	349.079786895358	1.388705869464
0	18527	351.323080148742	1.785328434435
0	18587	352.844595661397	0.855452399796
0	18876	358.937108444029	3.041985255018
0	18979	360.995631244863	0.015488135024
0	19053	362.407049836959	0.892666426025
0	19095	363.257868330038	0.015488135024
0	19348	368.153816470807	0.475288494143
0	19430	369.96582382424	0.437905662252
0	19651	373.402726658439	0.015488135024
0	19761	376.56593384286	0.916625462358
0	20141	383.621812048637	1.734297208096
0	20303	386.834525673238	0.927089892541
0	20353	387.944184764122	0.432261051425
0	20384	388.371047005428	0.015488135024
0	20505	391.373858785315	0.941016706546
0	20543	392.090586242536	0.015488135024
0	20632	393.639415052724	0.015488135024
0	20671	394.139214333488	0.015488135024
0	20747	395.5037241621	0.015488135024
0	20858	397.737343371714	0.849746010222
0	20937	398.904369131497	0.500536267368
0	21090	402.194917426617	2.597673148789
0	21354	407.129151165938	0.015488135024
0	21518	411.126668371018	3.246569413087
0	21647	414.279350842331	1.781556523081
0	21793	416.558016009426	0.015488135024
0	21885	418.639753820611	1.664512306984
0	22081	423.308647758877	2.676332618551
0	22193	425.478963051439	0.435482900103
0	22261	426.455687401477	0.505100594372
0	22383	428.264466999425	0.015488135024
0	22510	430.69384901696	0.015488135024
0	22877	437.45570893394	2.277634905398
0	23007	439.810912112924	0.557550385435
0	23108	441.574523921846	0.015488135024
0	23294	445.648791252954	2.744278685159
0	23494	449.744846978676	2.220864795804
0	23767	455.836681696918	3.650395364856
0	23841	457.345124134475	0.435230535037
0	23908	458.740835639133	0.015488135024
0	23976	459.819773851658	0.015488135024
0	24066	461.214257298653	0.015488135024
0	24370	466.09160185916	0.015488135024
0	24463	467.242725839792	0.015488135024
0	24933	476.655118300189	2.220159211852
0	25129	480.27999647578	0.015488135024
0	25300	483.953627893594	3.258247421721
0	25553	489.364719174312	3.077600702019
0	25617	490.455100309651	0.015488135024
0	25774	493.158467544861	0.015488135024
0	25860	494.992155518806	0.454208119169
0	25919	496.100968846487	0.015488135024
0	26011	498.100454581923	0.852197518645
0	26045	498.97749353936	0.452441895825
0	26297	503.835317830629	2.208509808515
0	26413	505.480226664095	0.015488135024
0	26482	508.041142270405	1.887909849946
0	26603	509.64366072322	0.015488135024
0	26799	513.496352727444	0.015488135024
0	26922	516.987048236125	1.324530718106
0	27162	520.893388408301	0.015488135024
0	27311	523.995359141938	1.780930470005
0	27342	524.433534708434	0.015488135024
0	27558	528.713312368101	2.216831923675
0	27695	531.042872070807	0.015488135024
0	27805	532.389048774408	0.015488135024
0	27938	534.429846732539	0.917709331939
0	27981	535.357667190432	0.465024262273
0	28006	535.782905887268	0.015488135024
0	28835	550.039754565443	0.015488135024
0	29029	552.306726835219	1.159475963335
0	29088	553.677014411192	0.905347362955
0	29178	555.222637655795	0.015488135024
0	29383	559.368707874831	3.242928420735
0	29499	561.613571539914	0.424579697313
0	29633	563.933123654268	1.813251205303
0	29738	567.124066203371	2.330896833552
0	29902	569.287892684009	0.876195081325
0	30136	573.114201477699	0.015488135024
0	30272	576.430738375471	1.371932288587
0	30504	580.517501582716	1.859510222383
0	30658	582.473240189847	0.015488135024
0	30759	585.409372323896	2.494061514078
0	30881	586.842279784376	0.015488135024
0	30959	587.846270494997	0.015488135024
0	31017	588.789128016631	0.015488135024
0	31070	589.476072859399	0.015488135024
0	31192	591.625456105264	0.856152923826
0	31251	592.923604519014	0.858469205329
0	31294	593.382196509608	0.015488135024
0	31449	596.949498647761	2.173273696453
0	31642	601.087227816855	1.74963226328
0	31791	603.109723807465	0.015488135024
0	31890	604.86895257215	0.015488135024
0	32015	606.662730096261	0.015488135024
0	32080	608.848969404122	1.719821735423
0	32190	610.603828065718	0.448081732217
0	32324	613.671420362739	3.067162594775
0	32392	614.602501288379	0.015488135024
0	32487	616.174114750032	0.015488135024
0	32681	619.916959741794	0.45315307791
0	32748	621.274921323864	0.942846089325
0	32904	624.796030413479	1.986098697163
0	32939	625.539772162614	0.015488135024
0	33118	629.341383430202	2.894922001158
0	33358	633.52996742102	0.927821855832
0	33426	634.910129830564	0.015488135024
0	33756	642.131431034849	2.780229037376
0	33921	645.700341243208	1.778372532412
0	34004	646.885918813204	0.015488135024
0	34214	651.216292886787	2.28895950844
0	34426	655.90591232046	2.243066327416
0	34598	659.28216739896	0.882846341564
0	34864	664.674602940096	2.217001310482
0	35046	668.11386660487	2.300106928549
0	35162	669.893128905057	0.015488135024
0	35266	672.18536555619	1.382793705376
0	35583	677.808201796772	0.015488135024
0	35616	678.271325224221	0.015488135024
0	35735	681.175588180363	1.867994955697
0	35788	681.862609439013	0.015488135024
0	35981	684.776751640358	1.846222280366
0	36441	691.068398423751	0.015488135024
0	36505	692.007332421353	0.015488135024
0	36791	698.354143299753	2.970157135027
0	37019	702.228311369197	3.87167722843
0	37152	704.456674348007	0.015488135024
0	37212	705.551572106841	0.015488135024
0	37269	706.446060186234	0.015947568826
0	37457	710.738576859955	2.261029628086
0	37573	712.54232748694	0.015488135024
0	37770	715.680922787761	0.015488135024
0	37831	716.787134935705	0.015488135024
0	38267	726.315506523947	6.397660305836
0	38509	730.770291291686	0.462111829036
0	38729	735.626448786246	1.789947833007
0	38914	739.259119557974	1.317844733388
0	39112	742.49851425754	1.88410762323
0	39161	743.198314792402	0.015488135024
0	39201	743.643976782841	0.015488135024
0	39324	747.011236839556	2.51222493692
0	39361	747.719303113411	0.015488135024
0	39437	749.08024629534	0.449643531838
0	39526	750.681352451807	0.015488135024
0	39632	752.825036512123	0.423992255355
0	39923	758.003446416869	0.893631580381
0	40173	762.946396353063	3.126604287855
0	40291	764.490051577667	0.015488135024
0	40363	766.994966841573	0.461897010288
0	40527	769.179912177627	0.015488135024
0	40677	772.310773418685	0.015488135024
0	40769	774.278363649985	0.463530288802
0	40876	775.82582338273	0.440369790772
0	40958	777.373190579234	0.423632882933
0	41040	778.742909963869	0.015488135024
0	41069	779.198059585665	0.015488135024
0	41180	782.066032597587	2.390657824607
0	41400	786.526081682281	0.937507699526
0	41500	788.130713323824	0.015488135024
0	41662	791.47209168368	0.015488135024
0	41819	793.790283264067	0.015488135024
0	42027	798.177391588546	2.559043113523
0	42100	798.680437487293	0.015488135024
0	42271	802.747804246917	1.579588663891
0	42450	806.519871742095	0.88289074756
0	42638	810.774065859222	2.708941314078
0	42948	815.754370791119	0.015488135024
0	43024	817.956921052798	0.863190242999
0	43466	825.474830446158	2.299665733128
0	43761	830.601553238705	0.015488135024
0	44017	836.073784551657	1.89810453649
0	44280	840.929474728983	2.220582220639
0	44337	841.610913210233	0.015488135024
0	44401	842.931497859292	0.015488135024
0	44530	845.451992403906	1.848246759994
0	44631	846.788366978785	0.015488135024
0	44784	849.603227400125	1.819968126881
0	44961	852.79877930308	0.891404886266
0	45012	853.696943602215	0.452824695436
0	45142	855.705043393473	0.015488135024
0	45172	856.169224435006	0.015488135024
0	45269	857.491773525926	0.015488135024
0	45376	860.427290278397	1.792809280291
0	45714	866.702680068876	3.813608670446
0	45863	869.135340388091	0.015488135024
0	45990	871.867336986768	2.140434695421
0	46170	875.673983871051	1.786032607782
0	46221	876.109008195415	0.015488135024
0	46439	880.929155521043	3.072206890471
0	46536	882.541214892175	0.476676941735
0	46851	888.808193771394	1.750052869603
0	47022	892.124827042488	2.227897149934
0	47218	896.326062872144	1.798117442477
0	47351	898.395096975182	2.063434487013
0	47439	900.375389214516	1.361148871158
0	47524	901.475557328231	0.015488135024
0	47561	901.910834395706	0.015488135024
0	47676	904.390769028451	0.894526918001
0	47765	906.110721747821	0.015488135024
0	47863	908.159123597492	1.320527922714
0	48113	912.731335175514	0.015488135024
0	48188	914.502064628284	1.278065372726
0	48262	915.563381488974	0.015488135024
0	48329	916.724397476255	0.015488135024
0	48452	919.886616832098	2.694581026938
0	48529	920.8131776136	0.015488135024
0	48727	925.387237768414	2.324624992398
0	48869	927.734875246388	0.015488135024
0	49046	931.109235692341	2.030271914084
0	49192	934.168232978933	1.337951002366
0	49696	943.723270808045	3.200480847996
0	49858	947.247926976734	2.172331339915
0	50010	950.68373673099	0.94203760382
0	50249	955.244800619662	1.307912744723
0	50528	960.863270019856	0.95125944194
0	50700	963.488065520793	0.015488135024
0	50762	964.181535062628	0.015488135024
0	51090	970.703759121065	1.37649364828
0	51203	972.172924215862	0.015488135024
0	51319	975.181604427146	0.906608849137
0	51580	980.158236536853	2.659084242864
0	51637	980.820940274983	0.015488135024
0	51796	984.542064828731	2.128080469856
0	52017	989.287110641291	2.924323654436
0	52100	991.097206387852	0.425236167085
0	52198	992.712221341905	0.015488135024
0	52268	993.879394391809	0.443168785681
0	52329	994.84251820081	0.015488135024
0	52435	996.454107694274	0.015488135024
0	52542	998.770457524511	1.420080391065
0	52629	1000.335598453353	0.474854185969
0	52724	1002.964067500964	1.893931688907
0	52796	1003.825323242225	0.015488135024
0	52959	1007.217864065844	1.260774442533
0	53082	1009.476747545979	0.474279260474
0	53186	1011.260992878705	0.074027155369
0	53341	1014.152975798417	0.015488135024
0	53456	1016.226214282552	0.940031755812
0	53519	1017.544832264506	0.904662349124
0	53770	1023.038208978023	3.030743150206
0	53896	1025.47477321445	0.448619175401
0	53980	1026.813728400481	0.870731204724
0	54216	1031.286824842172	0.461359116111
0	54362	1033.711845591051	0.015488135024
0	54669	1039.58297917869	1.433696352506
0	54704	1040.260589514785	0.015488135024
0	54909	1044.041063539939	0.015488135024
0	55084	1047.204637097628	0.908424729761
0	55249	1049.940473582833	0.499977620018
0	55353	1052.424283146668	1.367543714473
0	55439	1053.771354086356	0.015488135024
0	55480	1054.241218464996	0.015488135024
0	55593	1056.474306364653	1.778547055698
0	55787	1059.541696759679	0.444586612868
0	55821	1060.215648880293	0.015488135024
0	55912	1062.401157159147	1.776794925824
0	55991	1063.755732596398	0.015488135024
0	56081	1066.100246919116	0.865293451679
0	56340	1071.847565418095	3.361693573494
0	56568	1076.095138687973	1.34718091027
0	56632	1076.569907293337	0.015488135024
0	56723	1077.983932937108	0.015488135024
0	56782	1079.789065237494	1.390697874713
0	56837	1080.517859593372	0.015488135024
0	57009	1084.372755397025	2.263800817815
0	57237	1089.109402916681	2.326572228992
0	57475	1093.802464342058	2.740974047669
0	57651	1097.909864776723	1.860313039625
0	57772	1099.096110844618	0.015488135024
0	57868	1100.424444716536	0.015488135024
0	57960	1102.330928984836	0.490379923561
0	58024	1103.702579530813	0.473793547952
0	58145	1105.705554046391	0.015488135024
0	58472	1112.713331634769	3.179963623994
0	58542	1113.883303556292	0.015488135024
0	58685	1117.198018337793	2.252344988522
0	58813	1119.703963710016	0.015488135024
0	58867	1120.409501101646	0.015488135024
0	58915	1121.813708127337	0.015488135024
0	58995	1123.785895055611	0.436717182074
0	59046	1124.461462727188	0.015488135024
0	59085	1125.201714887785	0.015488135024
0	59199	1127.630840893363	1.784255654555
0	59229	1128.079866627483	0.015488135024
0	59288	1128.778714459887	0.015488135024
0	59453	1131.883325509224	0.015488135024
0	59500	1132.742926088452	0.015488135024
0	59706	1136.986683280567	1.797592795289
0	59810	1139.365360452766	1.904096741843
0	59943	1141.356805220695	0.015488135024
0	60026	1143.338767887638	0.443257074478
0	60129	1144.726125191736	0.015488135024
0	60303	1148.634835353781	1.906717384484
0	60449	1150.602873538188	0.441198396824
0	60581	1153.902555009945	2.453865728203
0	60803	1158.424352929348	2.274633061726
0	60934	1160.619959222342	0.015488135024
0	61166	1164.876524135592	1.350801441121
0	61412	1169.095384868676	1.728769104373
0	61585	1172.62441748828	1.812367580462
0	61640	1173.522947419683	0.015488135024
0	61821	1176.924350368623	1.418567464923
0	61865	1177.64074998791	0.015488135024
0	61905	1178.301116501643	0.015488135024
0	61952	1179.419971764927	0.42543023606
0	62373	1187.06726433471	1.289164819897
0	62559	1190.983401794057	3.476881041105
0	62636	1192.311487287321	0.446520415416
0	62704	1193.731719738972	0.465086773505
0	62758	1194.637735741709	0.015488135024
0	62979	1199.338728240382	4.275402726126
0	63280	1205.139467144963	1.721405378639
0	63470	1208.749524395004	0.95154472769
0	63521	1209.651055091552	0.457139487171
0	63597	1210.998074579593	0.921107594019
0	63754	1215.285668356826	3.803525997686
0	63893	1218.014096223498	0.015488135024
0	64094	1221.747215536581	0.471851633607
0	64174	1223.591979976231	1.375334088252
0	64697	1231.534639806349	0.456543417882
0	64884	1235.394301019673	2.279240150614
0	65228	1242.65843612055	2.084421506103
0	65565	1246.676126127289	1.632815935745
0	65613	1247.617612661534	0.015488135024
0	65718	1249.197815828627	0.015488135024
0	65878	1252.811528623885	2.257870126939
0	66007	1255.316731689256	0.015488135024
0	66188	1258.816771257221	0.502496874311
0	66215	1259.27843387399	0.015488135024
0	66447	1264.163483348015	3.133781244705
0	66635	1268.132555061437	3.109779472165
0	66696	1268.554576851846	0.015488135024
0	66879	1271.897370071002	0.015488135024
0	67066	1275.901635519664	2.452245602897
0	67411	1281.804597014516	2.257777749868
0	67582	1285.629478236916	1.977945205752
0	67831	1290.142248659366	2.255307365237
0	67911	1290.799731406938	0.015488135024
0	68095	1294.382476368759	1.25689921987
0	68165	1295.261476985614	0.015488135024
0	68275	1297.228111483385	0.015488135024
0	68324	1297.90478543583	0.015488135024
0	68409	1299.699205461167	0.015488135024
0	68584	1302.665838563215	0.466279827757
0	69010	1311.036166989291	3.103053280005
0	69170	1314.391914888534	1.007250269854
0	69346	1317.416537588469	0.015488135024
0	69484	1320.162322263336	0.015488135024
0	69677	1324.539228478552	2.800844512441
0	69873	1328.602152967999	1.695653495475
0	69931	1329.043190632656	0.015488135024
0	69993	1329.491107371602	0.015488135024
0	70253	1333.870981890078	0.015488135024
0	70350	1336.365377602026	1.5880063685
0	70598	1340.324528538155	0.015488135024
0	70979	1347.050721117179	1.96867507042
0	71100	1348.790199131822	0.015488135024
0	71177	1351.002138319266	1.770029477056
0	71305	1352.535185927484	0.015488135024
0	71746	1360.698492031355	1.359667602453
0	71926	1364.451768657375	2.49233816032
0	72094	1368.033271609958	2.210733958733
0	72178	1369.637352444679	0.488672469837
0	72229	1370.788148842084	0.487245929778
0	72418	1373.914605500487	0.015488135024
0	72547	1375.726291599999	1.367407129965
0	72648	1377.306781374422	0.015488135024
0	72824	1381.200667710588	2.551043502875
0	72994	1384.713408102471	1.732582830596
0	73078	1386.079170018662	0.468697428682
0	73274	1390.401728412472	3.423070675219
0	73409	1393.193750612997	0.460680859584
0	73531	1395.37428720709	0.431693482843
0	73733	1399.547906651847	2.241842578101
0	73896	1402.992624870677	0.97986517451
0	73957	1404.069026166796	0.015488135024
0	74054	1406.144769884991	1.337623512657
0	74092	1406.789951704906	0.015488135024
0	74178	1408.093787654081	0.015488135024
0	74336	1411.678844354677	2.275160569607
0	74542	1416.025053275234	2.352870886429
0	74818	1421.065274428816	2.431654113761
0	75040	1425.53877679249	2.255554389396
0	75240	1429.678696443392	2.590597143628
0	75466	1433.744201991902	0.015488135024
0	75538	1434.871284215995	0.015488135024
0	75669	1438.087356556763	2.319406088516
0	75840	1441.489467506076	1.326225299112
0	75887	1442.294849287827	0.015488135024
0	76070	1445.495353842043	0.497837039131
0	76244	1448.705369466085	0.94030941739
0	76287	1449.579896146708	0.015488135024
0	76343	1451.177022894831	0.465007116647
0	76428	1452.804262424727	0.439192841181
0	76546	1455.377150676533	1.004639363783
0	76612	1456.801342749686	0.989762865011
0	76739	1459.460693433776	0.428159630603
0	76797	1461.000087114218	0.507803778864
0	76870	1462.13616908006	0.478992737172
0	76930	1463.006697663175	0.437600273314
0	76976	1463.517752591594	0.015488135024
0	77000	1463.94811519322	0.015488135024
0	77135	1466.856262969744	0.451983624675
0	77225	1468.926515241263	1.418543541348
0	77376	1471.232097786298	0.015488135024
0	77504	1473.908263410009	2.17401993019
0	77693	1477.748835817576	1.867742177404
0	77760	1478.177755589752	0.015488135024
0	77780	1478.607644410867	0.015488135024
0	77893	1481.96630601531	1.763592212953
0	78003	1483.790177329978	0.444192656854
0	78139	1487.010068389172	2.718798442888
0	78222	1488.154536403523	0.015488135024
0	78334	1490.192846394863	0.481424107102
0	78387	1491.490063106594	0.880884180476
0	78488	1492.789901145991	0.015488135024
0	78671	1496.662113900996	1.814348836223
0	78859	1500.542401967308	2.330125451278
0	79102	1505.201570295531	2.703490967006
0	79283	1508.844033822644	1.860816481551
0	79850	1517.652325068246	0.953940958392
0	79964	1519.243663395716	0.015488135024
0	80014	1520.365410453485	0.015488135024
0	80053	1521.038433025473	0.015488135024
0	80101	1522.391927076365	0.923156263123
0	80125	1522.823850652438	0.015488135024
0	80151	1523.2646490261	0.015488135024
0	80327	1526.598875738162	0.905558586076
0	80401	1528.226701541078	0.97537742227
0	80523	1530.427004337332	0.015488135024
0	80695	1533.906576621926	0.015488135024
0	80895	1537.421836435399	1.857089136545
0	81024	1539.091374782032	0.015488135024
0	81114	1540.938422776134	0.92416211141
0	81190	1542.707629627399	1.341062071766
0	81292	1544.252822781196	0.88356094619
0	81410	1546.565071037494	1.867520686244
0	81662	1550.407958136572	0.015488135024
0	81788	1552.233523671544	0.015488135024
0	82060	1557.239993289449	0.980040366624
0	82235	1559.549602328396	0.015488135024
0	82578	1566.928867701249	2.807111969229
0	82678	1567.80603108826	0.015488135024
0	82827	1571.822382700881	1.684691453746
0	82896	1572.483660833453	0.015488135024
0	83077	1576.283111425255	0.015488135024
0	83206	1578.786486895615	0.015488135024
0	83376	1581.07755290443	0.015488135024
0	83441	1582.367322902393	0.440366275587
0	83528	1583.9558696014	0.015488135024
0	83652	1586.654205356578	0.905458141471
0	83718	1587.775687440106	0.015488135024
0	83785	1589.087875496615	0.882767701686
0	84039	1593.621970950892	0.941718141037
0	84099	1594.336356582632	0.015488135024
0	84224	1597.20850255239	2.206883292831
0	84463	1602.008092726864	3.09907874987
0	84504	1602.67729138736	0.015488135024
0	84544	1603.350548542368	0.015488135024
0	84653	1605.397419157286	0.864982132476
0	84751	1607.217481760029	0.015488135024
0	84932	1611.318987478472	1.889814832297
0	85077	1613.74562992708	0.015488135024
0	85167	1615.72511581266	0.87760125443
0	85238	1616.642269947937	0.482991518569
0	85308	1617.721359683969	0.015488135024
0	85732	1624.061123678043	0.015488135024
0	85782	1624.767134852361	0.015488135024
0	85877	1626.004613717358	0.015488135024
0	86019	1629.101100834489	2.21033470156
0	86414	1636.862511506061	2.642109461612
0	86469	1637.538811887722	0.015488135024
0	86531	1639.086274385575	0.868809266531
0	86642	1641.030100704644	0.015488135024
0	86692	1641.881323910701	0.015488135024
0	86917	1646.77646240235	2.601493390166
1	77	0.867619522127	25
1	312	5.466776986818	22
1	506	9.511202585094	13
1	702	13.370440217557	15
1	850	15.560010648272	9
1	954	17.745566589574	8
1	1238	23.535316048277	20
1	1375	26.366811630243	8
1	1933	35.648365976104	6
1	1972	36.543907546627	7
1	2047	37.846138578634	3
1	2460	46.505241333913	66
1	2563	47.643488259648	4
1	2612	48.524464955485	3
1	2730	50.98525417515	13
1	2775	51.619353824079	3
1	2963	55.742874634013	17
1	3064	57.75973304924	5
1	3188	59.752772281036	8
1	3325	62.70262543416	18
1	3471	64.709356371164	3
1	3638	68.393322005261	25
1	3801	72.000917714423	17
1	3882	73.556174056624	3
1	3951	75.603457763696	8
1	4164	80.301471465746	14
1	4384	84.471253965358	13
1	4518	86.442828582722	4
1	4628	89.193021182817	12
1	4808	92.953384360289	19
1	4835	93.378940225315	3
1	5064	97.827536389251	8
1	5369	103.208385705284	4
1	5417	104.115252439065	5
1	5476	105.510554194375	4
1	5875	111.867977531588	9
1	6000	115.618646448415	19
1	6163	119.146829896859	10
1	6271	120.48977082446	3
1	6447	124.376109251149	21
1	6611	126.625066719603	12
1	6770	130.058298617539	22
1	6987	133.821236945382	11
1	7182	136.24089754077	10
1	7324	139.124246659921	4
1	7423	140.972584473521	5
1	7556	143.395345407724	22
1	7587	143.844830020867	4
1	7752	147.465756870438	7
1	8232	155.90067002193	9
1	8501	160.826619670492	27
1	8821	165.293046149171	5
1	8892	167.144976473838	9
1	9023	169.58260547664	13
1	9133	171.847651198914	12
1	9177	172.537037211542	7
1	9784	183.375170788046	7
1	9853	184.50166570985	4
1	10017	187.978033752391	15
1	10231	192.730206621269	21
1	10307	194.046990371467	3
1	10426	196.128631660385	3
1	10529	198.813585072618	15
1	10756	203.346179156745	11
1	11124	209.425940219878	19
1	11257	211.221578128353	9
1	11382	213.742866512508	21
1	11558	218.043154080554	9
1	11777	222.144336922615	14
1	12004	226.676144050284	22
1	12048	227.321932714796	4
1	12281	231.894242055813	18
1	12495	236.276710572195	11
1	12722	241.396271108492	25
1	12860	244.281000402171	8
1	13036	248.386279337519	8
1	13083	249.484075495606	3
1	13153	249.947342803429	6
1	13357	253.68543917441	12
1	13538	257.745991875274	7
1	13607	258.754287446102	4
1	13757	262.700810263046	13
1	14018	267.579568506676	13
1	14072	268.035846402535	3
1	14296	271.934498193973	21
1	14534	276.885518333399	25
1	14803	281.821824982209	22
1	14990	285.713028567251	17
1	15071	286.159700562214	5
1	15380	292.580381023943	39
1	15495	294.912869104352	7
1	15553	296.317881089921	3
1	15698	299.055773735495	4
1	15738	300.002863578937	3
1	15980	304.484340971869	3
1	16031	305.208973128093	3
1	16085	306.346235616764	5
1	16339	311.406664132426	15
1	16462	313.677665288929	9
1	16620	316.436336258333	3
1	16947	322.77890114312	28
1	17135	326.072547761067	18
1	17344	329.80188209438	13
1	17671	335.926306316455	10
1	17790	337.340360883218	5
1	17908	340.864033968482	6
1	18011	342.643543835152	3
1	18096	344.593095109876	9
1	18248	346.390398649544	4
1	18411	349.079786895358	10
1	18527	351.323080148742	19
1	18587	352.844595661397	7
1	18876	358.937108444029	22
1	18979	360.995631244863	3
1	19053	362.407049836959	10
1	19095	363.257868330038	4
1	19348	368.153816470807	6
1	19430	369.96582382424	6
1	19651	373.402726658439	3
1	19761	376.56593384286	8
1	20141	383.621812048637	14
1	20303	386.834525673238	9
1	20353	387.944184764122	4
1	20384	388.371047005428	3
1	20505	391.373858785315	8
1	20543	392.090586242536	3
1	20632	393.639415052724	3
1	20671	394.139214333488	4
1	20747	395.5037241621	3
1	20858	397.737343371714	10
1	20937	398.904369131497	9
1	21090	402.194917426617	20
1	21354	407.129151165938	3
1	21518	411.126668371018	20
1	21647	414.279350842331	11
1	21793	416.558016009426	4
1	21885	418.639753820611	11
1	22081	423.308647758877	13
1	22193	425.478963051439	6
1	22261	426.455687401477	8
1	22383	428.264466999425	3
1	22510	430.69384901696	3
1	22877	437.45570893394	16
1	23007	439.810912112924	8
1	23108	441.574523921846	4
1	23294	445.648791252954	20
1	23494	449.744846978676	14
1	23767	455.836681696918	21
1	23841	457.345124134475	5
1	23908	458.740835639133	3
1	23976	459.819773851658	3
1	24066	461.214257298653	3
1	24370	466.09160185916	3
1	24463	467.242725839792	3
1	24933	476.655118300189	24
1	25129	480.27999647578	3
1	25300	483.953627893594	26
1	25553	489.364719174312	23
1	25617	490.455100309651	3
1	25774	493.158467544861	3
1	25860	494.992155518806	5
1	25919	496.100968846487	3
1	26011	498.100454581923	7
1	26045	498.97749353936	5
1	26297	503.835317830629	13
1	26413	505.480226664095	3
1	26482	508.041142270405	6
1	26603	509.64366072322	8
1	26799	513.496352727444	8
1	26922	516.987048236125	11
1	27162	520.893388408301	3
1	27311	523.995359141938	19
1	27342	524.433534708434	4
1	27558	528.713312368101	24
1	27695	531.042872070807	3
1	27805	532.389048774408	4
1	27938	534.429846732539	14
1	27981	535.357667190432	7
1	28006	535.782905887268	3
1	28835	550.039754565443	3
1	29029	552.306726835219	11
1	29088	553.677014411192	9
1	29178	555.222637655795	3
1	29383	559.368707874831	27
1	29499	561.613571539914	5
1	29633	563.933123654268	25
1	29738	567.124066203371	11
1	29902	569.287892684009	13
1	30136	573.114201477699	4
1	30272	576.430738375471	10
1	30504	580.517501582716	16
1	30658	582.473240189847	8
1	30759	585.409372323896	11
1	30881	586.842279784376	10
1	30959	587.846270494997	3
1	31017	588.789128016631	3
1	31070	589.476072859399	4
1	31192	591.625456105264	7
1	31251	592.923604519014	9
1	31294	593.382196509608	3
1	31449	596.949498647761	15
1	31642	601.087227816855	11
1	31791	603.109723807465	3
1	31890	604.86895257215	3
1	32015	606.662730096261	3
1	32080	608.848969404122	8
1	32190	610.603828065718	10
1	32324	613.671420362739	18
1	32392	614.602501288379	4
1	32487	616.174114750032	3
1	32681	619.916959741794	5
1	32748	621.274921323864	8
1	32904	624.796030413479	13
1	32939	625.539772162614	3
1	33118	629.341383430202	22
1	33358	633.52996742102	7
1	33426	634.910129830564	3
1	33756	642.131431034849	17
1	33921	645.700341243208	12
1	34004	646.885918813204	3
1	34214	651.216292886787	15
1	34426	655.90591232046	13
1	34598	659.28216739896	7
1	34864	664.674602940096	15
1	35046	668.11386660487	17
1	35162	669.893128905057	4
1	35266	672.18536555619	6
1	35583	677.808201796772	8
1	35616	678.271325224221	3
1	35735	681.175588180363	15
1	35788	681.862609439013	5
1	35981	684.776751640358	23
1	36441	691.068398423751	3
1	36505	692.007332421353	3
1	36791	698.354143299753	22
1	37019	702.228311369197	24
1	37152	704.456674348007	3
1	37212	705.551572106841	3
1	37269	706.446060186234	4
1	37457	710.738576859955	14
1	37573	712.54232748694	3
1	37770	715.680922787761	4
1	37831	716.787134935705	3
1	38267	726.315506523947	55
1	38509	730.770291291686	7
1	38729	735.626448786246	12
1	38914	739.259119557974	8
1	39112	742.49851425754	21
1	39161	743.198314792402	3
1	39201	743.643976782841	4
1	39324	747.011236839556	16
1	39361	747.719303113411	3
1	39437	749.08024629534	5
1	39526	750.681352451807	4
1	39632	752.825036512123	5
1	39923	758.003446416869	8
1	40173	762.946396353063	23
1	40291	764.490051577667	3
1	40363	766.994966841573	7
1	40527	769.179912177627	3
1	40677	772.310773418685	3
1	40769	774.278363649985	5
1	40876	775.82582338273	12
1	40958	777.373190579234	5
1	41040	778.742909963869	4
1	41069	779.198059585665	4
1	41180	782.066032597587	15
1	41400	786.526081682281	14
1	41500	788.130713323824	4
1	41662	791.47209168368	3
1	41819	793.790283264067	4
1	42027	798.177391588546	24
1	42100	798.680437487293	5
1	42271	802.747804246917	22
1	42450	806.519871742095	9
1	42638	810.774065859222	13
1	42948	815.754370791119	3
1	43024	817.956921052798	7
1	43466	825.474830446158	25
1	43761	830.601553238705	3
1	44017	836.073784551657	14
1	44280	840.929474728983	17
1	44337	841.610913210233	4
1	44401	842.931497859292	3
1	44530	845.451992403906	20
1	44631	846.788366978785	3
1	44784	849.603227400125	13
1	44961	852.79877930308	7
1	45012	853.696943602215	7
1	45142	855.705043393473	3
1	45172	856.169224435006	4
1	45269	857.491773525926	3
1	45376	860.427290278397	12
1	45714	866.702680068876	41
1	45863	869.135340388091	3
1	45990	871.867336986768	18
1	46170	875.673983871051	19
1	46221	876.109008195415	3
1	46439	880.929155521043	22
1	46536	882.541214892175	10
1	46851	888.808193771394	13
1	47022	892.124827042488	13
1	47218	896.326062872144	8
1	47351	898.395096975182	7
1	47439	900.375389214516	7
1	47524	901.475557328231	8
1	47561	901.910834395706	4
1	47676	904.390769028451	6
1	47765	906.110721747821	4
1	47863	908.159123597492	11
1	48113	912.731335175514	3
1	48188	914.502064628284	7
1	48262	915.563381488974	4
1	48329	916.724397476255	3
1	48452	919.886616832098	20
1	48529	920.8131776136	8
1	48727	925.387237768414	14
1	48869	927.734875246388	3
1	49046	931.109235692341	23
1	49192	934.168232978933	10
1	49696	943.723270808045	26
1	49858	947.247926976734	16
1	50010	950.68373673099	7
1	50249	955.244800619662	8
1	50528	960.863270019856	13
1	50700	963.488065520793	3
1	50762	964.181535062628	3
1	51090	970.703759121065	10
1	51203	972.172924215862	4
1	51319	975.181604427146	6
1	51580	980.158236536853	18
1	51637	980.820940274983	4
1	51796	984.542064828731	13
1	52017	989.287110641291	19
1	52100	991.097206387852	5
1	52198	992.712221341905	3
1	52268	993.879394391809	9
1	52329	994.84251820081	4
1	52435	996.454107694274	3
1	52542	998.770457524511	12
1	52629	1000.335598453353	8
1	52724	1002.964067500964	11
1	52796	1003.825323242225	3
1	52959	1007.217864065844	11
1	53082	1009.476747545979	9
1	53186	1011.260992878705	4
1	53341	1014.152975798417	3
1	53456	1016.226214282552	9
1	53519	1017.544832264506	10
1	53770	1023.038208978023	29
1	53896	1025.47477321445	4
1	53980	1026.813728400481	9
1	54216	1031.286824842172	5
1	54362	1033.711845591051	3
1	54669	1039.58297917869	7
1	54704	1040.260589514785	3
1	54909	1044.041063539939	3
1	55084	1047.204637097628	13
1	55249	1049.940473582833	8
1	55353	1052.424283146668	13
1	55439	1053.771354086356	4
1	55480	1054.241218464996	3
1	55593	1056.474306364653	19
1	55787	1059.541696759679	6
1	55821	1060.215648880293	3
1	55912	1062.401157159147	13
1	55991	1063.755732596398	3
1	56081	1066.100246919116	6
1	56340	1071.847565418095	24
1	56568	1076.095138687973	19
1	56632	1076.569907293337	4
1	56723	1077.983932937108	3
1	56782	1079.789065237494	7
1	56837	1080.517859593372	4
1	57009	1084.372755397025	13
1	57237	1089.109402916681	13
1	57475	1093.802464342058	21
1	57651	1097.909864776723	11
1	57772	1099.096110844618	4
1	57868	1100.424444716536	3
1	57960	1102.330928984836	5
1	58024	1103.702579530813	5
1	58145	1105.705554046391	3
1	58472	1112.713331634769	25
1	58542	1113.883303556292	3
1	58685	1117.198018337793	16
1	58813	1119.703963710016	3
1	58867	1120.409501101646	3
1	58915	1121.813708127337	3
1	58995	1123.785895055611	5
1	59046	1124.461462727188	3
1	59085	1125.201714887785	3
1	59199	1127.630840893363	17
1	59229	1128.079866627483	3
1	59288	1128.778714459887	4
1	59453	1131.883325509224	4
1	59500	1132.742926088452	3
1	59706	1136.986683280567	13
1	59810	1139.365360452766	15
1	59943	1141.356805220695	3
1	60026	1143.338767887638	4
1	60129	1144.726125191736	4
1	60303	1148.634835353781	9
1	60449	1150.602873538188	7
1	60581	1153.902555009945	13
1	60803	1158.424352929348	13
1	60934	1160.619959222342	4
1	61166	1164.876524135592	8
1	61412	1169.095384868676	13
1	61585	1172.62441748828	14
1	61640	1173.522947419683	3
1	61821	1176.924350368623	14
1	61865	1177.64074998791	4
1	61905	1178.301116501643	4
1	61952	1179.419971764927	5
1	62373	1187.06726433471	12
1	62559	1190.983401794057	31
1	62636	1192.311487287321	10
1	62704	1193.731719738972	5
1	62758	1194.637735741709	3
1	62979	1199.338728240382	33
1	63280	1205.139467144963	13
1	63470	1208.749524395004	7
1	63521	1209.651055091552	10
1	63597	1210.998074579593	14
1	63754	1215.285668356826	20
1	63893	1218.014096223498	3
1	64094	1221.747215536581	5
1	64174	1223.591979976231	13
1	64697	1231.534639806349	6
1	64884	1235.394301019673	25
1	65228	1242.65843612055	13
1	65565	1246.676126127289	12
1	65613	1247.617612661534	3
1	65718	1249.197815828627	3
1	65878	1252.811528623885	14
1	66007	1255.316731689256	3
1	66188	1258.816771257221	7
1	66215	1259.27843387399	3
1	66447	1264.163483348015	28
1	66635	1268.132555061437	26
1	66696	1268.554576851846	4
1	66879	1271.897370071002	3
1	67066	1275.901635519664	12
1	67411	1281.804597014516	24
1	67582	1285.629478236916	8
1	67831	1290.142248659366	18
1	67911	1290.799731406938	8
1	68095	1294.382476368759	9
1	68165	1295.261476985614	8
1	68275	1297.228111483385	4
1	68324	1297.90478543583	4
1	68409	1299.699205461167	3
1	68584	1302.665838563215	9
1	69010	1311.036166989291	24
1	69170	1314.391914888534	8
1	69346	1317.416537588469	3
1	69484	1320.162322263336	4
1	69677	1324.539228478552	17
1	69873	1328.602152967999	12
1	69931	1329.043190632656	5
1	69993	1329.491107371602	4
1	70253	1333.870981890078	4
1	70350	1336.365377602026	11
1	70598	1340.324528538155	4
1	70979	1347.050721117179	21
1	71100	1348.790199131822	4
1	71177	1351.002138319266	12
1	71305	1352.535185927484	8
1	71746	1360.698492031355	10
1	71926	1364.451768657375	16
1	72094	1368.033271609958	17
1	72178	1369.637352444679	5
1	72229	1370.788148842084	5
1	72418	1373.914605500487	3
1	72547	1375.726291599999	14
1	72648	1377.306781374422	4
1	72824	1381.200667710588	15
1	72994	1384.713408102471	14
1	73078	1386.079170018662	7
1	73274	1390.401728412472	22
1	73409	1393.193750612997	5
1	73531	1395.37428720709	6
1	73733	1399.547906651847	22
1	73896	1402.992624870677	14
1	73957	1404.069026166796	3
1	74054	1406.144769884991	11
1	74092	1406.789951704906	4
1	74178	1408.093787654081	3
1	74336	1411.678844354677	13
1	74542	1416.025053275234	11
1	74818	1421.065274428816	16
1	75040	1425.53877679249	15
1	75240	1429.678696443392	17
1	75466	1433.744201991902	3
1	75538	1434.871284215995	4
1	75669	1438.087356556763	15
1	75840	1441.489467506076	9
1	75887	1442.294849287827	4
1	76070	1445.495353842043	5
1	76244	1448.705369466085	13
1	76287	1449.579896146708	3
1	76343	1451.177022894831	5
1	76428	1452.804262424727	9
1	76546	1455.377150676533	8
1	76612	1456.801342749686	9
1	76739	1459.460693433776	6
1	76797	1461.000087114218	4
1	76870	1462.13616908006	9
1	76930	1463.006697663175	7
1	76976	1463.517752591594	4
1	77000	1463.94811519322	3
1	77135	1466.856262969744	5
1	77225	1468.926515241263	9
1	77376	1471.232097786298	3
1	77504	1473.908263410009	20
1	77693	1477.748835817576	15
1	77760	1478.177755589752	4
1	77780	1478.607644410867	3
1	77893	1481.96630601531	11
1	78003	1483.790177329978	9
1	78139	1487.010068389172	23
1	78222	1488.154536403523	3
1	78334	1490.192846394863	5
1	78387	1491.490063106594	7
1	78488	1492.789901145991	3
1	78671	1496.662113900996	18
1	78859	1500.542401967308	22
1	79102	1505.201570295531	17
1	79283	1508.844033822644	14
1	79850	1517.652325068246	11
1	79964	1519.243663395716	3
1	80014	1520.365410453485	3
1	80053	1521.038433025473	3
1	80101	1522.391927076365	7
1	80125	1522.823850652438	3
1	80151	1523.2646490261	3
1	80327	1526.598875738162	8
1	80401	1528.226701541078	7
1	80523	1530.427004337332	4
1	80695	1533.906576621926	4
1	80895	1537.421836435399	12
1	81024	1539.091374782032	4
1	81114	1540.938422776134	7
1	81190	1542.707629627399	8
1	81292	1544.252822781196	18
1	81410	1546.565071037494	17
1	81662	1550.407958136572	4
1	81788	1552.233523671544	4
1	82060	1557.239993289449	8
1	82235	1559.549602328396	3
1	82578	1566.928867701249	12
1	82678	1567.80603108826	4
1	82827	1571.822382700881	18
1	82896	1572.483660833453	3
1	83077	1576.283111425255	4
1	83206	1578.786486895615	3
1	83376	1581.07755290443	3
1	83441	1582.367322902393	6
1	83528	1583.9558696014	3
1	83652	1586.654205356578	7
1	83718	1587.775687440106	3
1	83785	1589.087875496615	12
1	84039	1593.621970950892	11
1	84099	1594.336356582632	5
1	84224	1597.20850255239	10
1	84463	1602.008092726864	21
1	84504	1602.67729138736	4
1	84544	1603.350548542368	4
1	84653	1605.397419157286	9
1	84751	1607.217481760029	3
1	84932	1611.318987478472	10
1	85077	1613.74562992708	3
1	85167	1615.72511581266	7
1	85238	1616.642269947937	6
1	85308	1617.721359683969	4
1	85732	1624.061123678043	3
1	85782	1624.767134852361	3
1	85877	1626.004613717358	3
1	86019	1629.101100834489	14
1	86414	1636.862511506061	25
1	86469	1637.538811887722	3
1	86531	1639.086274385575	7
1	86642	1641.030100704644	8
1	86692	1641.881323910701	3
1	86917	1646.77646240235	24
2	105	1.079919817291	0.561952540096
2	331	5.505497324378	2.877279015142
2	360	5.737390573085	0.046464405072
2	545	9.931369466934	2.061952540096
2	587	10.289263733994	0.030976270048
2	750	13.870179999612	1.57744067512
2	809	14.825927548655	0.530976270048
2	980	17.841235449557	2.57744067512
2	1268	23.794352665005	3.655888371255
2	1435	26.906171522372	3.046464405072
2	1495	27.755264837202	0.760353764651
2	1694	31.117040679839	0.948880261864
2	1721	31.337045774831	0.046464405072
2	1734	31.418898404839	0.046464405072
2	1811	32.784042729998	1.046464405072
2	1993	36.613604154235	3.025238721668
2	2477	46.574937941521	9.242567839893
2	2487	46.625345284239	0.030976270048
2	2586	47.881972797158	0.868386854942
2	2979	55.812571241621	6.994737781041
2	3122	58.460645829581	1.917463235031
2	3371	63.210250316781	3.623905080192
2	3816	72.039638051983	7.159247298803
2	4037	76.778124980257	3.492487905208
2	4204	80.802281004013	3.530976270048
2	4250	81.264421084238	0.278907880083
2	4298	81.916580419587	0.046464405072
2	4479	85.96110461489	3.07744067512
2	4536	86.492258486249	0.061952540096
2	5175	99.665712993913	12.794274565456
2	5355	103.100481704805	2.015488135024
2	5528	106.487891200773	3.07744067512
2	5538	106.606697847309	0.030976270048
2	5611	107.469197678944	0.030976270048
2	5720	109.825013800766	1.988233989282
2	5796	111.006138286028	0.965086518853
2	5808	111.164031666827	0.046464405072
2	5827	111.378115341152	0.046464405072
2	6052	116.063860005823	0.561952540096
2	6222	119.726355587682	2.061952540096
2	6244	119.868571272126	0.046464405072
2	6861	130.953551439132	10.216833890336
2	7250	137.602331157193	6.150623932782
2	7308	138.717137870169	0.046464405072
2	7348	139.393898339712	0.723224874615
2	7360	139.466954153246	0.046464405072
2	7625	144.313278479189	4.269860021759
2	7799	147.965205194087	3.334103766895
2	7854	148.331623667176	0.046464405072
2	7874	148.472309434484	0.030976270048
2	8016	151.13921139205	1.858268611561
2	8061	151.965798152276	0.530976270048
2	8072	152.025054001583	0.046464405072
2	8127	152.754748927291	0.046464405072
2	8279	156.433937360403	2.733340604437
2	8309	156.839966153128	0.11913443704
2	8555	161.221025878501	2.061952540096
2	8585	161.339880878874	0.076909522149
2	8683	162.496327153295	0.030976270048
2	8694	162.582767061568	0.046464405072
2	9152	172.087358582045	6.962327539031
2	9188	172.560269414078	7.435238371064
2	9221	173.198233164392	0.530976270048
2	9276	173.888527077765	0.688416466908
2	9373	175.683461385939	1.530976270048
2	9432	176.698819131326	0.720947866558
2	9512	178.297307264773	0.546464405072
2	9557	178.890631219674	0.046464405072
2	9820	183.848919599126	4.153141726547
2	10259	193.02794156529	7.639393215216
2	10391	195.436374806551	0.051010380516
2	10402	195.493096476684	0.046464405072
2	10592	199.605062833772	3.556706025077
2	10780	203.677205068836	2.561952540096
2	10825	204.455456132523	0.046464405072
2	10870	204.822101408921	0.046464405072
2	10881	204.897259884116	0.030976270048
2	10961	206.084124023842	0.530976270048
2	10988	206.542597925319	0.046464405072
2	11182	209.922343681443	2.592928810144
2	11193	210.042010075678	0.030976270048
2	11448	214.617866828439	4.108416945168
2	11624	218.710250617272	3.061952540096
2	11876	223.576261976397	3.57744067512
2	12125	228.542876108754	4.613884546329
2	12168	229.162753542261	0.4000902807
2	12391	233.547736333366	4.198435947954
2	12561	237.008972008131	3.388383425694
2	12572	237.065106038112	0.046464405072
2	12771	241.916936200575	0.410341044016
2	12915	244.913104588025	1.57744067512
2	13194	250.218884609996	0.546464405072
2	13393	253.914465683313	3.111332001549
2	13421	254.272341926769	0.046464405072
2	13568	258.057382255616	2.046464405072
2	13785	262.910870163296	0.623905080192
2	13891	264.695653073151	0.046464405072
2	14048	267.989796799271	2.57744067512
2	14091	268.066111647901	0.046464405072
2	14169	268.984901920783	0.046464405072
2	14393	273.449336301954	4.108416945168
2	14576	277.12894175053	2.637033707654
2	14596	277.346418207776	0.046464405072
2	14646	277.88258051963	0.046464405072
2	15026	285.906630255051	7.477154869447
2	15150	286.848071289388	0.046464405072
2	15618	297.500113415006	7.682520480632
2	15769	300.281881950609	2.777355644542
2	15840	301.646900024255	0.954816430264
2	15872	302.102506141563	0.140991609627
2	16012	304.789736720781	1.399229479737
2	16150	307.087617010328	1.645721890514
2	16226	308.410980085369	0.046464405072
2	16237	308.500343692459	0.046464405072
2	16413	312.729721191399	3.046464405072
2	16591	315.817296084624	1.030714176867
2	16594	315.833046312829	1.046464405072
2	16721	318.071014731729	2.051311921718
2	16726	318.081655350107	2.061952540096
2	16998	323.085754842916	3.600411082131
2	17147	326.111268098627	2.77847348173
2	17200	326.828843335213	0.574665090722
2	17228	327.046798250929	0.159058654127
2	17255	327.487952169377	0.046464405072
2	17426	330.537838775834	2.577751472209
2	17699	336.216347677696	1.57744067512
2	17730	336.591942995461	0.046464405072
2	17925	341.01548836189	0.546464405072
2	17969	341.769725031981	0.325479475678
2	18145	345.084020887754	2.561952540096
2	18199	345.869723745793	0.046464405072
2	18331	347.189814336988	0.185857620288
2	18546	351.5742265264	3.608416945168
2	19155	364.380697275042	9.608416945168
2	19213	365.328252434802	0.747161246881
2	19251	365.793029025907	0.154363032312
2	19578	372.563704562695	3.574810009173
2	19621	372.853466517067	0.046464405072
2	19833	377.514653069501	3.046464405072
2	19896	378.53455158764	0.046464405072
2	19996	380.208380708183	1.383076281378
2	20229	385.084401606542	3.363007811498
2	20618	393.477891427109	4.435119953642
2	20694	394.425515350158	5.382743876691
2	21103	402.249125899201	6.214008563535
2	21146	402.948956348294	0.471777051741
2	21294	406.057897299541	2.100040685964
2	21329	406.594019935034	0.030976270048
2	21535	411.36639438379	4.488431501684
2	21726	415.479205460227	4.024242577348
2	22340	427.399737883778	10.834062984276
2	22580	431.601401572969	3.316546137717
2	22661	432.6873057263	0.145271053849
2	22772	434.582745759964	1.079958399204
2	23126	441.644220529454	6.043011652482
2	23351	446.458894714272	4.608416945168
2	23391	447.036006426148	0.046464405072
2	23584	451.133619725078	3.924541250582
2	23811	456.588028138538	5.355161696776
2	23935	458.988959179841	1.107404856718
2	24032	460.599844076614	0.799423985297
2	24041	460.757842872397	0.030976270048
2	24187	463.239091318381	0.633569103843
2	24259	463.955307322458	0.546464405072
2	24270	464.006695846234	0.046464405072
2	24472	467.258827081021	2.170924947102
2	24515	467.982755912063	0.546464405072
2	24605	469.721035578538	1.110598031445
2	24723	471.687960607388	1.052690468083
2	24821	473.810644253743	1.094697306301
2	24945	476.693838637749	3.977891690307
2	25023	477.965467052363	1.046464405072
2	25084	479.190857284294	0.270346342361
2	25326	484.124732653433	3.123905080192
2	25680	491.433233739509	6.122982899855
2	25940	496.341215744226	3.736790511236
2	26108	499.694376726697	2.726509067484
2	26136	500.242210553544	0.046464405072
2	26197	500.738908310282	0.046464405072
2	26329	504.137705627174	2.561952540096
2	26395	505.050088564878	0.046464405072
2	26542	508.792309977886	3.591583875051
2	26578	509.236096832796	0.046464405072
2	26622	509.879307210063	0.689674782339
2	26726	512.628538992804	0.612967146499
2	26743	512.770446100716	0.046464405072
2	26950	517.126240645278	3.061952540096
2	27214	521.565428663112	1.934132246841
2	27389	524.908681060495	3.167799485232
2	27587	528.783008975709	3.659367556613
2	27607	529.017018021899	0.046464405072
2	27806	532.393052262122	2.325965931761
2	27815	532.412280976944	2.345194646583
2	27839	532.730332320364	0.046464405072
2	27861	532.953362369477	0.046464405072
2	28064	536.754974721577	1.228307723888
2	28144	538.203617667153	0.546464405072
2	28260	540.30607194729	1.883355337416
2	28273	540.403177740471	0.046464405072
2	28335	541.472635637601	0.030976270048
2	28348	541.534839570928	0.046464405072
2	28377	541.695166533636	0.122733368444
2	28396	541.87320837235	0.030976270048
2	28491	543.534825249624	0.690214013293
2	28587	545.263180044338	0.570504194397
2	28817	549.611683822083	2.194982230512
2	29138	554.382982715685	4.760096812374
2	29223	555.73211301565	0.623905080192
2	29652	564.002820261876	7.384202828033
2	29807	567.864278695985	3.163348291722
2	30062	572.039003212455	3.874296126046
2	30298	576.683402324746	2.546464405072
2	30365	577.378871274333	0.546464405072
2	30560	581.020473064591	2.592928810144
2	30623	582.030400987729	0.046464405072
2	30811	586.164406883118	0.051105321661
2	30944	587.406647364069	0.80976270048
2	31122	589.957464348524	2.061952540096
2	31334	593.884201054955	3.663773618246
2	31525	598.083639265317	2.167667981081
2	31545	598.467469329235	0.046464405072
2	31753	602.509246740087	3.000130862909
2	31774	602.673005821941	0.050901014394
2	31932	605.395897422039	2.620573031908
2	31977	605.980644249342	0.546464405072
2	32218	610.642548403278	4.128180367003
2	32362	614.153882720838	1.046464405072
2	32400	614.625733490915	1.518315175149
2	32470	615.730503315744	0.614223173805
2	32628	618.659119435903	2.063995665649
2	33138	629.614176800083	9.982009088914
2	33195	630.512965088168	0.030976270048
2	33255	631.211655832121	0.048909850152
2	33304	632.006097543809	0.387549452413
2	33540	636.975006838514	2.47208805146
2	33579	637.52653683	0.530976270048
2	33645	638.668466121638	0.046464405072
2	33979	646.227140752175	2.422718607628
2	34264	651.97198140639	4.134137742419
2	34475	656.411701018512	4.145155351449
2	34500	656.835646060592	0.225695496693
2	34551	657.758094943332	0.280136283185
2	34671	660.295764217	0.771787203924
2	34725	660.98805819863	0.046464405072
2	34918	665.156340288826	3.159931423001
2	35093	668.833059340503	3.436085388763
2	35125	669.435173689471	0.530976270048
2	35301	672.629800538962	2.600329303303
2	35542	677.20002209832	1.427365695557
2	35760	681.433837127774	3.648278069048
2	35812	682.001339541884	0.546464405072
2	36046	685.323970885355	2.108416945168
2	36081	685.78189858568	0.046464405072
2	36126	686.476476830989	0.046464405072
2	36185	687.068069395461	0.047800125319
2	36228	687.407263447847	0.122704739452
2	36248	687.74619480147	0.046464405072
2	36278	688.058126649408	0.046464405072
2	36311	688.338100857879	0.046464405072
2	36484	691.553304581115	3.193674168182
2	36545	692.909870021969	4.550239609036
2	36571	693.156303426699	0.225901487592
2	36853	698.801751746937	3.046464405072
2	37085	703.301624121638	4.215721843425
2	37320	707.36418511289	3.817033101112
2	37346	707.688080240147	0.046464405072
2	37368	707.914597557924	0.030976270048
2	37525	711.685948309465	1.399479069868
2	37560	712.137933676883	0.046464405072
2	37692	714.402250204734	1.452889726365
2	37794	715.936456485826	1.518446908942
2	37798	715.964473981956	1.546464405072
2	37934	718.694574358061	0.646842421541
2	38313	726.639232199177	6.701345755312
2	38439	729.293399787762	1.364891514986
2	38562	731.273018917441	1.3349350107
2	38753	735.735175897846	2.57744067512
2	38770	735.968935158821	0.030976270048
2	38840	737.066124161008	1.046464405072
2	38981	740.083683269748	2.561952540096
2	39006	740.226128427402	0.046464405072
2	39178	743.252523264986	3.072859242656
2	39210	743.667208985377	3.487544963047
2	39544	750.735560924391	4.417465285252
2	39724	754.243714097502	2.819761422139
2	39735	754.300666610395	0.046464405072
2	39774	754.79119510683	0.046464405072
2	39982	758.762898700534	1.295429674361
2	39992	758.898516972228	0.030976270048
2	40027	759.288971189601	0.046464405072
2	40196	763.060443210592	3.57744067512
2	40227	763.44102621555	0.057466387581
2	40276	764.055579809084	0.046464405072
2	40410	767.520754515031	2.57744067512
2	40440	767.852855357501	0.046464405072
2	40498	768.60052906129	0.046464405072
2	40651	771.697329472767	0.046464405072
2	40816	774.971350718173	2.697371110255
2	41001	777.883677075688	2.86661851053
2	41212	782.366636258997	3.721276043572
2	41476	787.559845515656	2.561952540096
2	41623	790.447013116553	1.204803602719
2	41705	791.935835148551	0.30219399088
2	41716	792.037101144936	0.046464405072
2	42076	798.526716810037	3.07744067512
2	42296	802.843330890104	2.561952540096
2	42341	803.243589080818	0.162722561022
2	42477	806.754258448745	2.061952540096
2	42676	811.275596312836	4.07744067512
2	42834	814.073691005385	1.546464405072
2	42930	815.322197414472	0.046464405072
2	43092	818.910663248317	1.220339886309
2	43143	819.724464293646	0.064814841224
2	43263	821.304195177949	0.116545313253
2	43314	822.191735277034	0.732745402926
2	43512	825.860241504473	2.07744067512
2	43544	826.219496112799	0.046464405072
2	43648	828.651755426568	2.011613476548
2	43671	828.853544142655	0.044165816763
2	43846	832.401742824258	2.061952540096
2	43936	833.760981001544	0.568426270295
2	44097	837.047150938292	2.583092683571
2	44316	841.192894023132	2.07744067512
2	44352	841.840235013713	2.724781665701
2	44583	846.030419465073	3.046464405072
2	44703	847.382503019198	1.141564814679
2	44828	849.988208840257	2.592928810144
2	44903	851.067513742778	0.811006225591
2	45099	855.069548925207	3.171505278753
2	45250	857.282369469511	1.805041385585
2	45309	858.038243154998	2.560915071072
2	45501	862.525495562535	2.29571553461
2	45761	867.429570026925	3.456321666292
2	45829	868.572912318491	0.857078799269
2	46058	873.223475174614	4.549222927494
2	46275	876.775774245106	2.205926441598
2	46555	882.641887769831	5.037285169325
2	46575	882.89852194507	0.046464405072
2	46702	885.541660478271	0.530976270048
2	46738	885.949449005226	0.357316719565
2	46908	889.333271754664	2.58068775269
2	47068	892.611318010419	3.263811793909
2	47116	893.637411665849	0.546464405072
2	47275	896.842697772518	2.561952540096
2	47286	896.998913207818	0.030976270048
2	47547	901.885591049411	3.07744067512
2	47623	903.058607657332	1.030976270048
2	47887	908.322586566821	3.441225177934
2	48085	912.108674714778	1.046464405072
2	48230	914.975601241591	2.2056717231
2	48309	916.273447416286	1.061952540096
2	48478	920.123262057506	3.061952540096
2	48754	925.641247795213	4.137731505554
2	48844	927.094110053112	0.100729172396
2	49060	931.147956029901	3.688306106735
2	49239	934.643076155238	0.938974403635
2	49318	935.945964486114	0.079214743808
2	49447	938.495557088193	1.26047202856
2	49712	943.792967415653	4.033039161201
2	49716	943.821880794548	4.061952540096
2	49922	948.380533006316	4.004164205754
2	50064	951.364060674184	1.687799184271
2	50330	956.518558761321	4.030976270048
2	50343	956.618368756522	0.046464405072
2	50549	960.976627815042	2.561952540096
2	50611	961.832747964405	0.374077873563
2	50741	963.784987210618	1.56170350127
2	50742	963.785236249444	1.561952540096
2	50814	965.186779302642	0.046464405072
2	50833	965.395100621411	0.030976270048
2	50960	967.855147275849	0.897135406334
2	50999	968.281997870721	0.411372266816
2	51164	971.460176334007	2.767064653931
2	51237	972.386486335561	0.561952540096
2	51368	975.705101223131	1.029257723371
2	51369	975.706819769808	1.030976270048
2	51438	976.756562680428	0.046464405072
2	51658	981.054645061097	2.07744067512
2	52306	994.599557842038	11.41494043398
2	52356	995.103490343904	11.918872935846
2	52765	1003.377378090819	6.170369485264
2	53121	1010.109465321731	6.139393215216
2	53295	1013.10743536722	2.535515231865
2	53300	1013.133872675451	2.561952540096
2	53529	1017.583552602066	3.680786937575
2	53838	1024.223404343784	6.184290066067
2	54002	1027.005298600631	2.570974560363
2	54118	1029.177773978577	0.472376415394
2	54310	1032.865920714654	3.147784240633
2	54454	1035.509849699885	2.535396880253
2	54499	1036.110370253942	0.530976270048
2	54688	1039.834135187995	2.93415932103
2	54728	1040.715755670166	3.815779803201
2	54762	1041.200115171913	0.030976270048
2	54830	1042.337798489735	0.630629579113
2	54949	1044.530714883203	0.778516494912
2	55011	1045.866641030033	0.878118956426
2	55129	1047.709188178293	1.692744943692
2	55407	1053.200369375103	4.092928810144
2	55625	1056.752249503154	2.962439259012
2	55636	1056.82763955116	0.030976270048
2	55675	1057.583989990042	0.546464405072
2	55924	1062.424389361683	3.763876960218
2	56140	1067.052933003937	4.092928810144
2	56403	1072.560223783878	4.785871782166
2	56604	1076.249336170494	3.07744067512
2	56700	1077.465205592177	0.046464405072
2	56867	1080.983179720737	2.585354238093
2	57044	1084.793293373885	3.592928810144
2	57136	1086.146557513307	1.346830265933
2	57325	1089.851844403787	3.232785284843
2	57544	1094.737448564395	2.061952540096
2	57717	1098.400968537008	3.125036841019
2	57728	1098.529034290451	0.046464405072
2	57856	1100.282833844026	0.604248413286
2	58114	1105.163677918456	4.356368297627
2	58130	1105.26195241723	0.046464405072
2	58273	1108.001861698244	2.70897099806
2	58717	1117.684978875049	7.324458720836
2	58844	1119.978388776713	2.209105582292
2	59028	1124.052205612766	1.138232393814
2	59256	1128.321248826533	2.614976454162
2	59317	1129.17978760533	3.473515232959
2	59432	1131.47086336998	1.309269913905
2	59466	1131.937533981808	1.775940525733
2	59578	1133.978355646068	1.537665825351
2	59724	1137.040891753151	2.374266101534
2	59859	1140.29290973992	2.561952540096
2	59893	1140.780406859284	0.046464405072
2	59929	1140.937101907848	0.046464405072
2	60139	1144.749357394272	3.387267034596
2	60162	1145.13428033147	0.046464405072
2	60352	1149.107647086797	2.267136162394
2	60634	1154.386081554534	4.274531726518
2	60653	1154.719474974064	0.046464405072
2	60689	1155.436305314638	0.046464405072
2	60708	1155.606747657525	0.046464405072
2	60975	1160.901221397443	4.433602445431
2	61060	1162.187214121285	1.046464405072
2	61190	1165.163194946836	2.211424258433
2	61234	1165.666554524364	0.046464405072
2	61245	1165.787310259394	0.046464405072
2	61449	1169.530487361533	2.07744067512
2	61739	1175.14729876555	3.554457309636
2	62031	1180.626421295681	5.213459283701
2	62074	1180.880884422078	0.04982042616
2	62145	1182.180040161915	0.030976270048
2	62211	1183.329963808158	0.030976270048
2	62296	1185.127386298397	1.187552939428
2	62583	1191.218402058039	4.033777650622
2	62997	1199.40842484799	5.627870448626
2	63002	1199.435435749604	5.65488135024
2	63098	1200.962138139102	1.323172797204
2	63312	1205.411764146119	2.561952540096
2	63376	1206.322215460002	0.046464405072
2	63533	1209.689775429112	2.59556979632
2	63922	1218.240177894355	6.553248267053
2	64029	1220.075001704445	1.671112555862
2	64242	1224.087176498531	2.07744067512
2	64427	1227.858259033781	0.046464405072
2	64455	1228.100321291495	0.046464405072
2	64547	1229.224145934761	0.046464405072
2	64566	1229.288327640367	0.030976270048
2	64666	1230.738032500013	1.061952540096
2	64904	1235.448509492257	3.66490784226
2	64918	1235.601293257931	0.030976270048
2	65087	1238.991697093159	1.561952540096
2	65116	1239.584909060527	0.046464405072
2	65298	1243.239390590636	3.561952540096
2	65332	1243.6086046903	0.226511697887
2	65343	1243.720133833636	0.046464405072
2	65630	1247.732985750675	2.670369485264
2	65657	1248.062129142121	0.046464405072
2	65783	1250.021966248355	1.546464405072
2	65935	1253.584497444708	2.267947248961
2	66081	1256.512723428089	0.419451091262
2	66121	1257.232417596688	0.358382870778
2	66266	1260.053182472352	2.07744067512
2	66671	1268.43188033678	7.478747052441
2	66704	1268.577809054382	0.120672307463
2	66848	1271.515619302697	0.641319102923
2	66888	1271.920602273538	1.046302073764
2	66916	1272.33111175253	0.030976270048
2	67088	1276.100314732881	2.046464405072
2	67137	1276.597641100858	0.046464405072
2	67219	1277.768859262491	0.115646917605
2	67433	1281.878140843003	3.123905080192
2	67463	1282.123054131381	0.046464405072
2	67661	1286.628576160343	2.561952540096
2	68122	1294.633824543578	6.092898415963
2	68126	1294.649343072783	6.108416945168
2	68517	1301.525961635242	3.92699700573
2	68689	1304.354088193025	2.608416945168
2	68862	1307.26032898001	1.015488135024
2	69104	1312.703327483653	3.830065827469
2	69217	1315.243013242568	2.343815557047
2	69322	1316.794308189635	0.651668857983
2	69446	1319.519059379887	1.991952381772
2	69502	1320.232018870944	0.557953131181
2	69570	1321.354155738244	0.179190077811
2	69734	1325.376772983701	3.046464405072
2	69886	1328.640873305559	3.122176617208
2	69952	1329.173122321837	0.046464405072
2	70092	1331.611078287934	2.329982477423
2	70165	1332.746223320256	1.030976270048
2	70193	1333.082666674394	0.046464405072
2	70204	1333.141881885403	0.046464405072
2	70263	1333.894214092614	0.474935446847
2	70437	1337.575867187855	1.561952540096
2	70462	1337.956294958694	0.030976270048
2	70510	1338.698218321846	0.030976270048
2	70529	1338.873137811959	0.046464405072
2	70563	1339.61327261802	0.046464405072
2	70653	1340.81659592304	0.711633645865
2	70664	1340.938353297299	0.030976270048
2	70756	1342.581165151915	1.186245662725
2	71011	1347.310727509871	3.920333410326
2	71199	1351.189402841708	0.546464405072
2	71346	1352.929292667065	1.561952540096
2	71474	1355.415534596828	1.997668914569
2	71557	1356.693043492435	0.030976270048
2	71606	1357.169837879162	0.219432553981
2	71815	1361.452698923257	4.092928810144
2	72143	1368.744041537055	6.897345788161
2	72350	1372.400859699433	2.299758993337
2	72562	1375.765011937559	2.348027196213
2	72622	1376.901536578492	0.975947122707
2	72659	1377.330013576958	1.404424121173
2	72705	1378.035179538741	0.516594139673
2	72856	1381.586176088712	3.07744067512
2	73038	1385.218069268246	2.500619643232
2	73290	1390.493706821021	4.623905080192
2	73475	1394.102297074962	1.57744067512
2	73778	1400.2421776611	5.92740278811
2	73990	1404.370645710494	1.687261243713
2	74148	1407.50796068235	3.092928810144
2	74230	1408.625066979142	0.301800314227
2	74241	1408.715308922886	0.046464405072
2	74367	1411.795005367357	1.558314153716
2	74438	1412.813219974987	0.260611875268
2	74598	1416.548443929352	2.889195688594
2	74653	1417.176976343399	0.046464405072
2	74693	1417.585479767527	0.046904092597
2	74730	1418.173547647905	0.546464405072
2	74865	1421.484004065573	2.07744067512
2	74933	1422.411494106203	0.17001372355
2	75125	1426.583946611598	3.092928810144
2	75310	1430.581648876891	3.561952540096
2	75439	1433.120155544927	1.851722453206
2	75747	1439.489325283186	3.79535108512
2	75919	1442.538398386485	2.265962778922
2	76148	1446.707066440998	2.727068730237
2	76469	1453.507077330071	6.066208675922
2	76667	1457.553799159453	3.261541685975
2	76985	1463.54098479413	4.040738381775
2	77073	1465.096560410454	1.240613041185
2	77311	1470.105740090246	3.714235321796
2	77523	1474.02181505454	3.784291499011
2	77558	1474.356719942027	0.046464405072
2	77585	1474.914174122382	0.046464405072
2	77725	1477.93894465455	2.030976270048
2	77941	1482.399474416357	2.157319967842
2	77960	1482.846806329525	0.046464405072
2	78180	1487.544194172174	3.608416945168
2	78198	1487.675836820896	0.046464405072
2	78451	1491.975275512507	4.092709985205
2	78692	1496.885950739859	3.931808287897
2	78963	1501.798384756776	4.561952540096
2	79144	1505.738054201977	3.496701288965
2	79156	1505.904496276282	0.046464405072
2	79305	1508.950016426619	2.061952540096
2	79417	1510.516467660381	0.046464405072
2	79591	1513.112265569329	1.506118672359
2	79643	1513.78972051938	0.030976270048
2	79715	1514.955589046767	0.397979487158
2	79902	1518.14958127788	2.409685362929
2	80232	1524.636974892749	5.203788335556
2	80267	1525.123972516434	0.458416637569
2	80463	1529.166411898517	3.25423621086
2	80617	1532.520954327972	0.678283230828
2	80714	1534.008077553317	0.046464405072
2	80820	1535.183558432716	0.703105345733
2	80934	1537.506440399171	2.092928810144
2	80962	1537.718317818955	0.046464405072
2	80989	1538.359595718218	0.046464405072
2	81420	1546.603791375054	7.771517389249
2	81442	1547.04724617888	0.030976270048
2	81591	1549.308671214225	0.121089342829
2	81624	1549.742523920027	0.257771180007
2	81728	1551.338258016371	1.19936642173
2	81817	1552.511713893871	1.046464405072
2	81886	1553.617934817038	0.05281307047
2	82212	1559.093439472002	4.546464405072
2	82307	1561.003000873568	1.10701803965
2	82386	1562.444034663604	1.061952540096
2	82421	1562.797241346108	0.046464405072
2	82655	1567.433074841077	3.108333566405
2	82695	1567.921180240042	0.030976270048
2	82850	1571.977301139768	3.41438949394
2	82974	1574.303906939588	1.134266125914
2	83179	1578.188819174762	2.657938784919
2	83307	1580.379547948767	0.867165597614
2	83354	1580.626853930619	0.108154563843
2	83726	1587.798919642642	6.653086022706
2	83816	1589.546566388742	1.546464405072
2	84112	1594.359588785168	3.097477987168
2	84124	1594.417698580902	0.030976270048
2	84526	1602.918732150884	7.697610336131
2	84577	1603.692811900877	0.530976270048
2	84726	1606.580417001494	1.503451398739
2	85011	1612.410133214685	3.679717262851
2	85247	1616.665502150473	2.734151398252
2	85336	1617.965469884187	0.733123722451
2	85356	1618.211146434479	0.178726598495
2	85458	1620.057570323202	1.584246779424
2	85551	1621.354557848165	0.372816134962
2	85618	1621.833469523597	0.06089429041
2	85711	1623.624473211058	1.579634834896
2	85818	1625.041250526609	1.239541519999
2	85842	1625.400636203735	0.046464405072
2	86062	1629.765737139267	4.213821530745
2	86173	1631.746958207523	1.903102798802
2	86588	1639.946152914498	8.104650304021
2	86946	1647.025185859802	4.936061628606
2	86988	1647.531802345544	0.030976270048
2	86999	1647.590022404728	0.046464405072
3	135	1.37979576532	1.061952540096
3	146	1.499557312944	0.030976270048
3	350	5.712648977703	4.030976270048
3	371	5.821769286741	0.046464405072
3	534	9.765328622229	3.051205471881
3	579	10.270784777765	0.046464405072
3	731	13.674642891301	2.046464405072
3	968	17.784286927134	2.276979267288
3	1019	18.617305046656	0.546464405072
3	1266	23.778864529981	4.457863502531
3	1300	24.247976163969	0.046464405072
3	1416	26.760571669605	2.046464405072
3	1497	27.770752972226	0.156093590523
3	1534	28.576609228416	0.546464405072
3	1556	28.623565141451	0.046464405072
3	1570	28.745132762328	0.046464405072
3	1699	31.132528814863	0.346204700783
3	1775	32.03223104228	0.280614933083
3	1990	36.598116019211	3.183606597729
3	2475	46.559449806497	8.920483097746
3	2587	47.881972797158	1.090612048736
3	2757	51.214403849391	2.758989039952
3	2976	55.797083106597	4.453015452038
3	3124	58.476133964605	1.735093811755
3	3353	63.126036927359	3.092928810144
3	3399	63.431178774646	0.046464405072
3	3445	64.282021497576	0.180423079897
3	3815	72.039638051983	7.526840943764
3	4039	76.793613115281	2.582719141183
3	4246	81.248932949214	2.983451104254
3	4403	84.57831272722	0.546464405072
3	4909	94.883734121511	9.763298295408
3	4952	95.452960578803	0.231218023687
3	5137	99.039855081362	3.546464405072
3	5186	99.711371413344	0.046464405072
3	5292	101.949491347955	1.926216800536
3	5550	106.781637958075	4.561952540096
3	5574	106.958740120231	0.046464405072
3	5792	110.990650151004	2.287543502167
3	5900	111.997768360151	0.592928810144
3	6027	115.886574198106	3.608416945168
3	6040	115.9981473635	0.046464405072
3	6093	116.705873777477	0.546464405072
3	6461	124.414829588709	5.210124077883
3	6823	130.76080299127	5.763298295408
3	6839	130.828327438384	0.046464405072
3	6849	130.878837536745	0.030976270048
3	7251	137.602331157193	6.368938989111
3	7272	137.842936607716	0.046464405072
3	7607	144.102487810866	4.525703025807
3	7643	144.593268757687	0.046464405072
3	7801	147.980693329111	2.146027916147
3	7810	148.063490994922	0.030976270048
3	7841	148.270235593333	0.046464405072
3	7909	148.862189710601	0.030976270048
3	7942	149.442783048602	0.546464405072
3	8107	152.643432271661	0.178161231117
3	8277	156.418449225379	2.791137509476
3	8315	156.855454288152	0.032283576094
3	8522	160.878107196329	3.278786430432
3	8592	161.355369013898	0.05685263154
3	8622	161.863778427653	0.046464405072
3	8697	162.621448016959	0.530976270048
3	8919	167.606709252677	4.764944757566
3	9151	172.087358582045	3.81873358198
3	9187	172.560269414078	4.291644414013
3	9248	173.531498432422	0.046464405072
3	9430	176.683330996302	1.865737915866
3	9529	178.432620615442	1.530976270048
3	9600	179.429259707441	0.046464405072
3	9651	180.283173739658	0.323461856165
3	9722	181.641223541606	1.144093103196
3	10036	188.24383620449	6.411883923682
3	10277	193.326532427419	4.592928810144
3	10366	194.9742493176	0.923862912762
3	10590	199.589574698748	1.262030557418
3	10601	199.690394955475	0.030976270048
3	10641	200.259699088853	0.046464405072
3	10794	203.824406781537	2.530976270048
3	10902	204.986790189996	0.046464405072
3	11007	206.785385465914	0.046464405072
3	11160	209.742320449214	1.530976270048
3	11414	214.008712478081	3.107317778109
3	11571	218.081874418114	2.66735223253
3	11645	219.041096478341	0.546464405072
3	11671	219.307086899339	0.046464405072
3	11863	223.354240792161	3.639393215216
3	12127	228.558364243778	4.412704541185
3	12170	229.178241677285	0.161746542999
3	12343	232.659799414102	2.764727304225
3	12546	236.821240870436	3.242637469843
3	12901	244.745077524822	6.63002944524
3	12950	245.336141441118	0.546464405072
3	13215	250.477346329525	4.340738970528
3	13235	250.627763265239	0.131919076021
3	13394	253.914465683313	3.282724906608
3	13642	259.238479823218	3.561952540096
3	13765	262.724042465582	2.820883848638
3	13838	263.74807361084	0.046464405072
3	14115	268.516636753072	3.546464405072
3	14133	268.60604588049	0.030976270048
3	14338	272.513492362174	1.561952540096
3	14555	276.980439356268	3.561952540096
3	14627	277.615801292674	0.05332674193
3	14837	282.098983656077	3.689385480072
3	15024	285.891142120027	3.476847661702
3	15049	285.993493643711	0.046464405072
3	15091	286.188998458656	0.046464405072
3	15166	287.068063245276	0.257774160674
3	15459	294.069036397482	6.541194184262
3	15616	297.484625279982	9.956783066762
3	15842	301.662388159279	0.312553438089
3	16014	304.805224855805	1.07744067512
3	16148	307.072128875304	2.209211954089
3	16199	308.114613643694	0.530976270048
3	16396	312.423653315129	3.07744067512
3	16587	315.8018079496	2.698221041603
3	16727	318.086502866753	0.797849294822
3	16747	318.318043331718	0.030976270048
3	16777	318.864942268571	0.046464405072
3	16966	322.848597750728	3.874418551259
3	16993	323.070266707892	0.046464405072
3	17226	327.031310115905	3.139381634747
3	17390	330.048930954218	1.546464405072
3	17458	331.152781575462	1.046464405072
3	17477	331.216718116317	0.046464405072
3	17559	332.834671275919	0.966212645081
3	17710	336.353059221892	2.57744067512
3	18134	345.0409756126	2.592928810144
3	18154	345.145844585496	0.030976270048
3	18181	345.583404476525	0.046464405072
3	18221	345.928514068483	0.046464405072
3	18256	346.41363085208	0.531581188669
3	18547	351.5742265264	4.374873363012
3	18652	353.771841793788	0.601225693525
3	18886	358.975828781589	4.352972329505
3	19069	362.654443489315	3.505072307124
3	19211	365.312764299778	1.288490066002
3	19372	368.386871255727	2.67254831631
3	19469	370.490907251643	1.912220245551
3	19580	372.579192697719	1.65299382166
3	19596	372.747022992231	0.046464405072
3	19801	377.113687318397	1.07744067512
3	19877	378.317498276918	0.546464405072
3	20008	380.405478522043	1.331263465541
3	20197	384.635253717115	3.950962830773
3	20409	388.877726624994	4.061952540096
3	20620	393.493379562133	2.373539588976
3	20702	394.448532828873	0.592928810144
3	20878	397.791551844298	2.043338200083
3	20882	397.810166184311	2.061952540096
3	21105	402.264614034225	3.811234141012
3	21296	406.073385434565	2.054477688552
3	21545	411.427374348127	4.07744067512
3	21731	415.577309785748	3.546464405072
3	21748	415.718472537456	0.030976270048
3	21767	415.946333587153	0.046464405072
3	22341	427.399737883778	10.897357044368
3	22362	427.651092069099	0.046464405072
3	22479	430.04139870856	1.72561543545
3	22584	431.616889707993	1.062986264589
3	22596	431.708731239645	0.046464405072
3	22715	433.648125659033	1.530976270048
3	22774	434.598233894988	0.482061527045
3	22962	438.894993696696	3.036920233131
3	23123	441.62873239443	1.823742481623
3	23336	446.393696540541	4.566744514764
3	23341	446.419880835921	4.592928810144
3	23362	446.566603044041	0.046464405072
3	23582	451.118131590054	4.538022909169
3	23957	459.407692936269	7.65488135024
3	24030	460.58435594159	1.059035689844
3	24165	463.017655724137	1.887735219983
3	24229	463.709429287366	0.201036571936
3	24248	463.847472681669	0.046464405072
3	24473	467.258827081021	3.007357337897
3	24495	467.710462440832	3.458992697708
3	24662	470.837353993492	1.75690621157
3	24726	471.703448742412	0.517958722398
3	25010	477.769300396812	4.07744067512
3	25308	483.97686009613	4.138959249501
3	25377	484.926883319934	0.546464405072
3	25683	491.448721874533	6.139587218931
3	25740	492.568577458142	0.674727420122
3	25939	496.341215744226	3.492831169087
3	26110	499.709864861721	3.197165868454
3	26157	500.34554810441	0.046464405072
3	26349	504.394065278082	2.07744067512
3	26538	508.776821842862	3.57744067512
3	26765	512.98098990719	1.561952540096
3	26956	517.141728780302	2.607083182157
3	26986	517.596512877216	0.046464405072
3	27027	518.175768720638	0.046464405072
3	27046	518.513892421524	0.046464405072
3	27121	520.056252535502	1.001160987751
3	27216	521.580916798136	1.041051855483
3	27369	524.767681181018	0.546464405072
3	27580	528.767520840685	3.569671690734
3	27585	528.775289825071	3.57744067512
3	27807	532.393052262122	2.785699219901
3	28147	538.226803158441	5.07744067512
3	28262	540.321560082314	0.815778967997
3	28375	541.679678398612	0.15282000376
3	28417	542.262130050526	0.046464405072
3	28585	545.247691909314	1.61042948693
3	28666	546.911873935231	0.046464405072
3	28683	547.013081572106	0.030976270048
3	28820	549.627171957107	1.387224368336
3	29041	552.345447172779	1.92325508387
3	29143	554.398470850709	1.40584182294
3	29418	559.693320341864	4.623905080192
3	29650	563.987332126852	3.920778022393
3	29805	567.848790560961	1.667400975697
3	29987	570.96892909561	2.35088013287
3	30065	572.054491347479	0.695634658919
3	30103	572.510723686004	0.046464405072
3	30155	573.173665616201	0.546464405072
3	30328	577.063075221465	3.046464405072
3	30539	580.934846268364	3.592928810144
3	30610	581.937266478322	0.530976270048
3	30778	585.637596882995	3.061952540096
3	30914	587.060210863784	0.030976270048
3	31085	589.512053433702	1.499840646734
3	31102	589.748610546137	1.736397759169
3	31336	593.899689189979	3.588979793439
3	31521	598.068151130293	4.032441001507
3	31524	598.082174533858	4.046464405072
3	31695	601.580310373104	2.195090636856
3	31755	602.524734875111	0.211294557011
3	31929	605.380409287015	1.668065397638
3	32231	610.712832487575	5.123905080192
3	32444	615.324865390663	4.442355433078
3	32548	617.169227658576	1.177409216939
3	32652	619.041012886236	1.046464405072
3	33181	630.49653727161	9.278786430432
3	33217	630.770935964311	0.195163801827
3	33236	631.050494798357	0.046464405072
3	33384	633.812263875161	2.162900415443
3	33544	636.990494973538	1.886214098543
3	33588	637.583843280197	0.030976270048
3	33783	642.483195276199	2.046464405072
3	33818	643.241520230567	0.046464405072
3	33837	643.376456429134	0.046464405072
3	33981	646.242628887199	2.622401127848
3	34107	648.497784687157	1.619789903831
3	34296	652.594752607125	4.013164508941
3	34473	656.396212883488	2.133278861433
3	34674	660.311252352024	1.702560300109
3	34754	661.493071359036	0.546464405072
3	34897	664.96294501189	2.22529538794
3	35107	669.090516579394	2.456486128913
3	35202	670.133432393706	0.166632523259
3	35313	672.672355161606	2.046464405072
3	35371	673.883633015758	0.046464405072
3	35408	674.492413671643	0.178399812122
3	35546	677.215510233344	1.937798070241
3	35845	682.342001375322	1.681273099888
3	36011	684.815471977918	2.459955922306
3	36087	685.797386720704	0.04010869404
3	36180	687.052581260437	0.046464405072
3	36193	687.095100587371	0.030976270048
3	36296	688.285428122418	0.546464405072
3	36485	691.553304581115	3.132475079658
3	36664	694.910186915595	2.061952540096
3	36832	698.657792485748	3.07744067512
3	36893	699.330048268733	0.425687015829
3	37084	703.301624121638	3.07744067512
3	37359	707.86418511289	3.546464405072
3	37552	712.110953852894	3.657995498761
3	37750	715.310737637232	1.738198316451
3	37791	715.920968350802	2.348429030021
3	37932	718.679086223037	2.239647923405
3	38296	726.572397637283	7.724095558583
3	38547	731.072171193327	2.980474025085
3	38741	735.665169123806	2.96008905942
3	38956	739.902598983442	2.546464405072
3	39180	743.26801140001	3.306462635759
3	39209	743.667208985377	3.705660221126
3	39399	748.248942769976	3.211327685735
3	39548	750.751049059415	2.255381723544
3	39722	754.228225962478	3.171242670511
3	39800	754.957027373444	0.046464405072
3	39978	758.74741056551	2.96163061382
3	40240	763.540548891859	4.07744067512
3	40415	767.536242650055	3.082857616747
3	40503	768.660760694756	0.530976270048
3	40608	771.026698978985	1.875800246804
3	40733	773.197509036547	0.83970105785
3	40998	777.868188940664	2.623977085187
3	41451	787.332772071333	9.123905080192
3	41625	790.462501251577	2.241923340928
3	41763	792.80967386475	0.624157770437
3	41854	794.066607034089	0.046464405072
3	42064	798.447715614691	3.772587902787
3	42284	802.786524584477	3.885641110568
3	42345	803.259077215842	0.138310528803
3	42463	806.558592079655	3.061296436894
3	42544	807.864888334533	0.374429481574
3	42712	811.817858584849	3.592928810144
3	42821	813.966324971949	1.772859709852
3	42877	814.632437960866	0.030976270048
3	42899	814.896122125638	0.046464405072
3	43041	818.030040895624	2.546464405072
3	43124	819.514890268172	0.919032568921
3	43154	819.775778207075	0.046464405072
3	43177	819.995945655156	0.101641826372
3	43217	820.477918609199	0.155101929831
3	43499	825.761685929818	3.561952540096
3	43734	829.950853073106	0.530976270048
3	43934	833.74549286652	3.140182210631
3	44093	837.031662803268	2.155542434525
3	44136	837.637045611345	0.561952540096
3	44152	837.933141714696	0.030976270048
3	44163	838.005166534766	0.046464405072
3	44297	841.145732126332	2.546464405072
3	44543	845.490712741466	3.149678645665
3	44797	849.657435872709	3.911557142348
3	44814	849.86235095692	0.030976270048
3	44905	851.083001877802	0.409168961491
3	45104	855.13328490317	1.030976270048
3	45198	856.388106622298	0.561952540096
3	45311	858.053731290022	0.48674042867
3	45499	862.510007427511	1.508060497583
3	45827	868.557424183467	5.50084627895
3	46246	876.36794001064	7.15488135024
3	46489	881.631887667577	4.577296717924
3	46553	882.626399634807	5.571808685154
3	46671	885.07434764563	1.350912472785
3	46752	886.204315762774	0.546464405072
3	46904	889.31778361964	1.57744067512
3	47070	892.626806145443	3.271824159369
3	47255	896.585756606958	2.030976270048
3	47311	897.300567906904	0.030976270048
3	47725	905.290460473158	7.346908621005
3	47897	908.412883429952	2.683225673275
3	47937	909.166530760787	0.030976270048
3	48098	912.286252795111	1.061952540096
3	48232	914.991089376615	1.707883067171
3	48559	921.10713610307	5.608416945168
3	48753	925.641247795213	3.814055445887
3	48842	927.078621918088	0.792063586213
3	49087	931.545841522181	2.608416945168
3	49106	931.58209119647	0.030976270048
3	49216	934.236399578726	1.046464405072
3	49299	935.756138915923	0.046464405072
3	49436	938.286531263263	1.002523695527
3	49484	939.015319183715	0.572424966056
3	49501	939.23392337333	0.030976270048
3	49709	943.777479280629	4.230969206534
3	49923	948.380533006316	4.527118929759
3	50028	950.88884188282	1.030976270048
3	50105	951.812593972296	0.354683392382
3	50294	955.769533819105	3.046464405072
3	50601	961.755307289285	2.910420398691
3	50737	963.769499075594	1.605869592878
3	50958	967.839659140825	3.240256374839
3	51129	971.170978949904	1.673320436412
3	51162	971.444688198983	0.271064207437
3	51183	971.737807005391	0.046464405072
3	51225	972.304573363566	0.613230763247
3	51378	975.79062043421	1.546464405072
3	51427	976.701703979704	0.030976270048
3	51457	976.915961504124	0.046464405072
3	51611	980.368396322351	3.108416945168
3	51693	981.535110130412	0.669344646945
3	51854	985.223738849844	3.540793963766
3	52056	989.820846472772	4.042112472306
3	52183	992.295134991966	1.128708458624
3	52369	995.117907065566	2.061952540096
3	52394	995.562470684478	0.030976270048
3	52562	999.02000040804	3.431970586977
3	52822	1004.15158947717	4.046464405072
3	52834	1004.267717767996	0.046464405072
3	53030	1008.58794104014	3.092928810144
3	53247	1012.407436966544	3.672420617164
3	53309	1013.287485324029	0.828355561951
3	53851	1024.425794143366	10.466195271047
3	54001	1027.005298600631	2.061952540096
3	54116	1029.162285843553	1.946454132719
3	54306	1032.85043257963	3.064797022169
3	54309	1032.863076232581	3.07744067512
3	54489	1035.970465146223	2.981097262722
3	54533	1036.618500034662	0.046464405072
3	54552	1036.834921569679	0.046464405072
3	54740	1040.920304752814	2.592928810144
3	54892	1043.673348013709	1.484434010698
3	54947	1044.515226748179	2.326312745168
3	55150	1048.064985614048	2.07744067512
3	55411	1053.215857510127	4.078827315417
3	55627	1056.767737638178	3.217296247418
3	55935	1062.466070941589	3.592928810144
3	56123	1066.862900078678	1.821336305675
3	56350	1071.886285755655	3.856227971322
3	56383	1072.349044090505	0.046464405072
3	56423	1072.802122075869	0.260942454403
3	56596	1076.226787835677	2.94181767822
3	56671	1077.049051747722	0.046464405072
3	56897	1081.489982122162	4.061952540096
3	57125	1085.966685202344	4.262701425757
3	57264	1089.210075794337	3.075944941885
3	57285	1089.355269274183	0.046464405072
3	57327	1089.867332538811	0.176260612412
3	57365	1090.629117754783	0.546464405072
3	57525	1094.61676046242	3.061952540096
3	57715	1098.385480401984	1.751292601704
3	57854	1100.267345709002	1.1846997766
3	57982	1102.587383749809	1.720838335874
3	58118	1105.17916605348	2.155738096911
3	58243	1107.534624007164	0.920953444291
3	58285	1108.169189549011	0.046464405072
3	58718	1117.684978875049	7.485463024062
3	58846	1119.993876911737	2.187008933958
3	59030	1124.06769374779	1.719840608374
3	59210	1127.669561230923	3.589675415891
3	59257	1128.321248826533	4.241363011501
3	59316	1129.17978760533	0.046464405072
3	59468	1131.953022116832	1.425450822553
3	59576	1133.962867511044	0.824022529229
3	59727	1137.056379888175	2.315986380917
3	59845	1139.868069141705	5.127675634447
3	59916	1140.871459322877	0.030976270048
3	60096	1144.271828126978	2.63775112072
3	60140	1144.749357394272	3.115280388014
3	60197	1145.634407258674	0.046464405072
3	60350	1149.092158951773	3.298002164792
3	60371	1149.37944084259	0.046464405072
3	60599	1153.979513654063	3.639393215216
3	60977	1160.916709532467	4.91776124571
3	60998	1161.166275384373	0.030976270048
3	61041	1162.123671987457	0.046464405072
3	61204	1165.350447099147	2.061952540096
3	61292	1166.458783952519	0.046464405072
3	61422	1169.118617071212	2.584722839271
3	61466	1169.690941335771	0.046464405072
3	61712	1174.75611515278	3.07744067512
3	61873	1177.663982190446	2.837070544608
3	62033	1180.641909430705	2.009843038906
3	62054	1180.803443746958	0.058557480382
3	62175	1182.684063611192	0.030976270048
3	62584	1191.218402058039	6.994078482295
3	62994	1199.392936712966	6.605263467477
3	63079	1200.758297063162	1.139185440491
3	63100	1200.977626274126	0.160266471778
3	63129	1201.442585098704	0.24559001256
3	63336	1205.802022240229	4.046464405072
3	63923	1218.240177894355	7.919758135977
3	64025	1220.059513569421	1.77029004804
3	64203	1223.856624378405	3.790606683178
3	64220	1223.985371582902	0.046464405072
3	64278	1224.577564208413	0.030976270048
3	64416	1227.762162613208	1.926239405985
3	64486	1228.512466152584	0.046464405072
3	64514	1228.89374787043	0.151120896403
3	64536	1229.115325781136	0.08432794726
3	64653	1230.523968901192	0.498403877509
3	64907	1235.463997627281	3.495376837675
3	65023	1237.864804607986	1.705950850554
3	65268	1242.975979496768	3.561952540096
3	65289	1243.203657887494	0.046464405072
3	65410	1244.43946541666	0.546464405072
3	65646	1247.993069612334	2.46464405072
3	65933	1253.569009309684	4.656179078612
3	66079	1256.497235293065	1.661032469325
3	66457	1264.202203685575	6.534712040241
3	66735	1269.153492459823	4.608416945168
3	66850	1271.531107437721	0.142468176539
3	66906	1272.260516363352	0.530976270048
3	66926	1272.362288262743	0.030976270048
3	66974	1272.940921848547	0.030976270048
3	67118	1276.4003929335	3.203058339912
3	67200	1277.580399557458	0.546464405072
3	67291	1279.147596212428	0.546464405072
3	67444	1282.001006639874	1.07744067512
3	67506	1283.008496720135	0.046464405072
3	67601	1285.796198113078	1.546464405072
3	67626	1286.133130361476	0.046464405072
3	67865	1290.303757016266	3.825250835504
3	68036	1292.641429776885	1.656366106006
3	68261	1297.074565578727	4.22940271578
3	68284	1297.251343685921	4.406180822974
3	68296	1297.337018786002	0.046464405072
3	68515	1301.510473500218	3.070910398032
3	68667	1303.904347834815	1.887793925965
3	68743	1305.25833205873	0.046464405072
3	68796	1306.043195328729	0.046464405072
3	69101	1312.687839348629	6.634393209948
3	69235	1315.48867543037	0.030976270048
3	69257	1315.71316186315	0.171295074046
3	69525	1320.429712189118	3.154878499471
3	69717	1325.01686964472	2.292791012183
3	69997	1329.496430520904	4.092928810144
3	70147	1332.53584989347	2.376734673082
3	70282	1334.101132320706	0.222208342193
3	70415	1337.054843647953	1.11255528573
3	70676	1341.170092866153	0.546464405072
3	70767	1342.635350651342	0.046464405072
3	71009	1347.295239374847	4.339546565125
3	71030	1347.519747981548	0.030976270048
3	71218	1351.251462074602	3.546464405072
3	71255	1351.688727146762	0.046464405072
3	71327	1352.631295727901	0.046464405072
3	71491	1355.62606877598	2.087733818732
3	71528	1356.151852228827	0.046464405072
3	71610	1357.185326014186	0.232291749638
3	72104	1368.085278645687	9.716833890336
3	72145	1368.759529672079	0.43621012944
3	72290	1371.500559255934	2.63821442389
3	72352	1372.416347834457	0.623165985462
3	72836	1381.239388048148	3.033812925927
3	72882	1381.94390805726	0.030976270048
3	73099	1386.141154900713	3.061952540096
3	73111	1386.202111563555	0.046464405072
3	73318	1390.938214567084	3.701546935597
3	73456	1393.877987272946	1.607415523276
3	73777	1400.2421776611	3.724981804814
3	73988	1404.35515757547	2.215006694219
3	74063	1406.168002087527	4.027851206276
3	74128	1407.100964508862	0.046464405072
3	74228	1408.609578844118	0.980940939596
3	74425	1412.605795024598	2.895472905086
3	74601	1416.563932064376	2.783935927371
3	74673	1417.491391439571	0.030976270048
3	74843	1421.248666657523	1.546464405072
3	74895	1421.954309329454	0.046464405072
3	75072	1425.785838801899	2.061952540096
3	75257	1429.748393051	3.711044695956
3	75323	1430.712079455878	0.046464405072
3	75509	1434.43974607585	3.57744067512
3	75738	1439.256424896162	4.730328218645
3	75774	1439.797679759204	0.136357984358
3	75926	1442.553886521509	2.638591204322
3	75944	1442.835195401157	0.046464405072
3	76011	1444.138785330727	0.201703332592
3	76262	1448.956481638428	4.57744067512
3	76665	1457.538311024429	4.07769809943
3	76984	1463.54098479413	2.815729219564
3	77071	1465.08107227543	0.855368290525
3	77326	1470.306886018506	3.019692786064
3	77358	1470.782128361268	0.030976270048
3	77526	1474.037303189564	2.092928810144
3	77746	1478.120339743188	2.546464405072
3	77922	1482.247536517038	2.061952540096
3	78187	1487.566439853025	2.57744067512
3	78415	1491.786803947578	3.636843231468
3	78438	1491.94914495219	0.046464405072
3	78693	1496.885950739859	3.971180153424
3	78900	1500.981130734687	3.292065593398
3	78922	1501.250706906009	0.136694098038
3	78949	1501.43355852856	0.046464405072
3	79168	1506.094255352226	4.592928810144
3	79195	1506.512810315915	0.046464405072
3	79372	1509.741537789195	1.700670741107
3	79398	1510.31994570131	0.046464405072
3	79526	1512.037614881187	0.80308175677
3	79593	1513.127753704353	0.663163983047
3	79650	1513.806613557419	0.046464405072
3	79717	1514.971077181791	0.373051193446
3	79933	1518.620400271446	3.234533745846
3	80234	1524.652463027773	5.556669628166
3	80474	1529.463330372825	4.046464405072
3	80483	1529.545082621724	0.030976270048
3	80657	1533.260359653191	0.558292827343
3	80760	1534.63576265782	0.513425017824
3	80771	1534.731339293269	0.046464405072
3	80928	1537.490952264147	2.430552845014
3	80943	1537.522059642577	0.030976270048
3	81468	1547.366114747722	8.608416945168
3	81499	1547.9493457974	0.046464405072
3	81571	1549.107959139294	1.132884401283
3	81700	1551.070755031952	0.046464405072
3	81930	1554.348120546292	3.046464405072
3	81943	1554.41156566015	0.046464405072
3	82125	1558.152705128258	3.610827640029
3	82182	1558.791566734632	0.48153550784
3	82208	1559.068893542459	0.030976270048
3	82334	1561.486450162772	2.301770082486
3	82408	1562.700577598876	0.046464405072
3	82461	1563.289281111925	0.046464405072
3	82480	1563.65647681718	0.046464405072
3	82614	1567.174576244045	3.07744067512
3	82651	1567.417586706053	0.105515550091
3	82697	1567.921180240042	0.60910908408
3	82708	1567.978577593646	0.046464405072
3	82849	1571.977301139768	1.07744067512
3	83026	1575.24325813117	0.180612432002
3	83181	1578.204307309786	0.957957529337
3	83305	1580.364059813743	1.656796346478
3	83343	1580.580389525547	0.178366861805
3	83362	1580.657179083125	0.046464405072
3	83505	1583.291121563747	1.624149727891
3	83583	1584.907083968322	0.88091033927
3	83831	1589.720266016885	4.092928810144
3	83866	1590.061345783458	0.030976270048
3	84113	1594.359588785168	2.879736528229
3	84136	1594.531097627827	0.046464405072
3	84525	1602.918732150884	8.071234047259
3	84559	1603.420245149976	8.572747046351
3	84602	1604.099830254131	0.030976270048
3	84786	1607.716034273633	2.973785245717
3	84811	1608.249659305646	0.030976270048
3	84855	1608.98557760838	0.241152925557
3	84997	1612.239092180932	1.415802452648
3	85038	1613.059075451568	0.046464405072
3	85273	1617.169200871563	2.608416945168
3	85473	1620.249646483807	1.561840300436
3	85498	1620.669993223955	0.046464405072
3	85515	1620.763344440825	0.030976270048
3	85563	1621.512346387334	0.046464405072
3	85640	1622.222246930972	0.546464405072
3	85831	1625.3079888274	2.561952540096
3	86061	1629.765737139267	4.22340080239
3	86175	1631.762446342547	1.349109994616
3	86207	1632.188274702649	0.213699993245
3	86587	1639.946152914498	6.005169535765
3	86671	1641.442136646934	1.046464405072
3	86740	1642.839319354623	2.443647112761
3	86948	1647.027150264373	3.592928810144
3	86981	1647.512701394625	0.241856241868

