version 2
run General-0-20220625-10:49:29-12088
attr configname General
attr datetime 20220625-10:49:29
attr experiment General
attr inifile omnetpp.ini
attr iterationvars ""
attr iterationvarsf ""
attr measurement ""
attr network Raft
attr processid 12088
attr repetition 0
attr replication #0
attr resultdir results
attr runnumber 0
attr seedset 0
param Raft.numServers 5
param Raft.numClients 2
param Raft.client[*].numServers 5
param Raft.statsCollector.numServers 5
param Raft.server[*].numServers 5
param Raft.server[*].canFail true

vector 0 Raft.statsCollector consensusTime:vector ETV
attr interpolationmode linear
attr title "Time required to reach consensus on a new leader, since network is leaderless, vector"
attr unit s
vector 1 Raft.statsCollector consensusMessages:vector ETV
attr interpolationmode none
attr title "Number of messages exchanged on the network to reach consensus among servers, vector"
vector 2 Raft.client[1] commandResponseTime:vector ETV
attr interpolationmode linear
attr title "Total response time of client request, vector"
attr unit s
vector 3 Raft.client[0] commandResponseTime:vector ETV
attr interpolationmode linear
attr title "Total response time of client request, vector"
attr unit s
0	16	0.44524159555	0.44524159555
0	213	4.307346465536	1.796153048009
0	306	5.650400216837	0.015488135024
0	353	6.534962891713	0.015488135024
0	520	9.063507604646	1.808001727196
0	619	10.552072260544	0.015488135024
0	701	12.544424601894	0.836402092363
0	739	13.050119015409	0.015488135024
0	870	15.111654862342	0.015488135024
0	931	15.564918181091	0.015488135024
0	1081	17.639484976593	0.015488135024
1	16	0.44524159555	5
1	213	4.307346465536	8
1	306	5.650400216837	4
1	353	6.534962891713	3
1	520	9.063507604646	31
1	619	10.552072260544	3
1	701	12.544424601894	5
1	739	13.050119015409	3
1	870	15.111654862342	8
1	931	15.564918181091	4
1	1081	17.639484976593	8
2	55	0.93119536443	0.046464405072
2	121	1.86239072886	0.046464405072
2	271	4.809074228314	2.061952540096
2	536	9.102227942206	3.408422754534
2	593	10.017935171612	0.030976270048
2	773	13.501496707903	2.598830576933
2	824	14.432692072333	0.046464405072
2	899	15.363887436763	0.046464405072
2	978	16.295082801193	0.046464405072
2	1051	17.226278165623	0.046464405072
2	1092	17.662717179129	0.482903418578
3	68	1.015914752523	0.046464405072
3	138	2.031829505046	0.046464405072
3	243	4.547744257569	1.546464405072
3	546	9.125611550188	3.608416945168
3	605	10.126038167687	0.030976270048
3	772	13.501496707903	2.406008192765
3	835	14.517411460426	0.046464405072
3	917	15.533326212949	0.046464405072
3	1001	16.549240965472	0.046464405072

